REMARK  1 active torsions:
REMARK  status: ('A' for Active; 'I' for Inactive)
REMARK    1  A    between atoms: C_7  and  O_20 
ROOT
HETATM    1  N   UNL     1       2.026   8.097   0.000  1.00  0.00    -0.365 N 
HETATM    2  O   UNL     1       5.087   3.426   0.000  1.00  0.00    -0.332 OA
HETATM    3  C   UNL     1       3.504   8.357   0.000  1.00  0.00     0.120 A 
HETATM    4  C   UNL     1       4.498   7.125   0.000  1.00  0.00    -0.024 A 
HETATM    5  C   UNL     1       5.797   7.875   0.000  1.00  0.00     0.030 A 
HETATM    6  C   UNL     1       7.096   7.125   0.000  1.00  0.00     0.057 A 
HETATM    7  C   UNL     1       7.096   5.625   0.000  1.00  0.00     0.094 A 
HETATM    8  C   UNL     1       4.498   5.625   0.000  1.00  0.00    -0.003 A 
HETATM    9  C   UNL     1       5.797   4.875   0.000  1.00  0.00     0.107 A 
HETATM   10  C   UNL     1       3.199   4.875   0.000  1.00  0.00     0.050 A 
HETATM   11  C   UNL     1       1.276   6.798   0.000  1.00  0.00     0.078 A 
HETATM   12  C   UNL     1       1.789   5.388   0.000  1.00  0.00     0.029 A 
HETATM   13  C   UNL     1       1.750   5.263   0.000  1.00  0.00     0.029 A 
HETATM   14  C   UNL     1       0.689   4.203   0.000  1.00  0.00     0.035 A 
HETATM   15  C   UNL     1       3.587   3.426   0.000  1.00  0.00     0.128 A 
HETATM   16  C   UNL     1       1.078   2.754   0.000  1.00  0.00     0.155 A 
HETATM   17  C   UNL     1       2.526   2.366   0.000  1.00  0.00     0.063 A 
HETATM   18  O   UNL     1       0.017   1.693   0.000  1.00  0.00    -0.223 OA
HETATM   19  C   UNL     1       1.166   9.326   0.000  1.00  0.00     0.121 C 
ENDROOT
BRANCH   7  20
HETATM   20  O   UNL     1       8.395   4.875   0.000  1.00  0.00    -0.330 OA
HETATM   21  C   UNL     1       9.694   5.625   0.000  1.00  0.00     0.181 C 
ENDBRANCH   7  20
TORSDOF 1
