REMARK  1 active torsions:
REMARK  status: ('A' for Active; 'I' for Inactive)
REMARK    1  A    between atoms: N_6  and  C_14 
ROOT
HETATM    1  N   UNL     1     -11.415  -0.237   0.000  1.00  0.00    -0.220 NA
HETATM    2  O   UNL     1     -11.687   2.347   0.000  1.00  0.00    -0.168 OA
HETATM    3  N   UNL     1      -9.041  -1.294   0.000  1.00  0.00    -0.339 N 
HETATM    4  H   UNL     1      -8.160  -2.507   0.000  1.00  0.00     0.164 HD
HETATM    5  N   UNL     1      -8.431   2.504   0.000  1.00  0.00    -0.239 NA
HETATM    6  N   UNL     1      -7.005   0.540   0.000  1.00  0.00    -0.299 N 
HETATM    7  C   UNL     1     -10.805   1.133   0.000  1.00  0.00     0.231 A 
HETATM    8  C   UNL     1      -9.313   1.290   0.000  1.00  0.00     0.153 A 
HETATM    9  C   UNL     1      -8.431   0.077   0.000  1.00  0.00     0.141 A 
HETATM   10  C   UNL     1      -7.005   2.040   0.000  1.00  0.00     0.236 A 
HETATM   11  C   UNL     1     -10.533  -1.450   0.000  1.00  0.00     0.231 A 
ENDROOT
BRANCH   6  12
HETATM   12  C   UNL     1      -5.791  -0.342   0.000  1.00  0.00     0.022 A 
HETATM   13  C   UNL     1      -4.421   0.269   0.000  1.00  0.00     0.062 A 
HETATM   14  C   UNL     1      -3.207  -0.613   0.000  1.00  0.00    -0.029 A 
HETATM   15  C   UNL     1      -3.364  -2.105   0.000  1.00  0.00     0.041 A 
HETATM   16  C   UNL     1      -1.837  -0.003   0.000  1.00  0.00     0.028 C 
HETATM   17  C   UNL     1      -4.734  -2.715   0.000  1.00  0.00     0.046 A 
HETATM   18  N   UNL     1      -2.151  -2.987   0.000  1.00  0.00    -0.106 NA
HETATM   19  C   UNL     1      -5.948  -1.833   0.000  1.00  0.00     0.045 A 
ENDBRANCH   6  12
TORSDOF 1
