REMARK  3 active torsions:
REMARK  status: ('A' for Active; 'I' for Inactive)
REMARK    1  A    between atoms: C_16  and  C_25 
REMARK    2  A    between atoms: C_17  and  C_19 
REMARK    3  A    between atoms: C_25  and  N_26 
ROOT
HETATM    1  C   UNL     1       8.250   9.147   0.000  1.00  0.00     0.009 A 
HETATM    2  C   UNL     1       6.951   8.397   0.000  1.00  0.00     0.026 A 
HETATM    3  C   UNL     1       9.549   8.397   0.000  1.00  0.00     0.026 A 
HETATM    4  C   UNL     1       9.549   6.897   0.000  1.00  0.00    -0.028 A 
HETATM    5  C   UNL     1       6.951   6.897   0.000  1.00  0.00    -0.028 A 
HETATM    6  C   UNL     1       8.250   6.147   0.000  1.00  0.00     0.004 A 
HETATM    7  C   UNL     1      10.500   5.946   0.000  1.00  0.00    -0.031 A 
HETATM    8  C   UNL     1       9.750   4.647   0.000  1.00  0.00    -0.014 A 
HETATM    9  C   UNL     1      12.000   5.946   0.000  1.00  0.00     0.025 A 
HETATM   10  C   UNL     1      12.750   4.647   0.000  1.00  0.00     0.005 A 
HETATM   11  C   UNL     1      10.500   3.348   0.000  1.00  0.00     0.025 A 
HETATM   12  C   UNL     1      12.000   3.348   0.000  1.00  0.00     0.005 A 
HETATM   13  C   UNL     1       6.000   5.946   0.000  1.00  0.00    -0.028 A 
HETATM   14  C   UNL     1       6.750   4.647   0.000  1.00  0.00     0.002 A 
HETATM   15  C   UNL     1       4.500   5.946   0.000  1.00  0.00     0.035 A 
HETATM   16  C   UNL     1       6.000   3.348   0.000  1.00  0.00    -0.024 A 
HETATM   17  C   UNL     1       3.750   4.647   0.000  1.00  0.00     0.104 A 
HETATM   18  C   UNL     1       4.500   3.348   0.000  1.00  0.00     0.033 A 
HETATM   19  C   UNL     1       8.250   4.647   0.000  1.00  0.00     0.178 A 
HETATM   20  O   UNL     1       8.250   3.147   0.000  1.00  0.00    -0.213 OA
ENDROOT
BRANCH  16  21
HETATM   21  C   UNL     1       6.750   2.049   0.000  1.00  0.00     0.120 C 
BRANCH  21  22
HETATM   22  N   UNL     1       6.000   0.750   0.000  1.00  0.00    -0.362 N 
HETATM   23  C   UNL     1       6.750  -0.549   0.000  1.00  0.00     0.121 C 
HETATM   24  C   UNL     1       4.500   0.750   0.000  1.00  0.00     0.121 C 
ENDBRANCH  21  22
ENDBRANCH  16  21
BRANCH  17  25
HETATM   25  C   UNL     1       2.250   4.647   0.000  1.00  0.00     0.398 C 
HETATM   26  F   UNL     1       2.250   6.147   0.000  1.00  0.00    -0.170 F 
HETATM   27  F   UNL     1       0.750   4.647   0.000  1.00  0.00    -0.170 F 
HETATM   28  F   UNL     1       2.250   3.147   0.000  1.00  0.00    -0.170 F 
ENDBRANCH  17  25
TORSDOF 3
