REMARK  1 active torsions:
REMARK  status: ('A' for Active; 'I' for Inactive)
REMARK    1  A    between atoms: C_4  and  C_5 
ROOT
HETATM    1  C   UNL     1       3.000   4.647   0.000  1.00  0.00     0.032 A 
HETATM    2  C   UNL     1       1.500   4.647   0.000  1.00  0.00     0.005 A 
HETATM    3  C   UNL     1       3.750   3.348   0.000  1.00  0.00     0.041 A 
HETATM    4  C   UNL     1       0.750   3.348   0.000  1.00  0.00     0.007 A 
HETATM    5  C   UNL     1       3.000   2.049   0.000  1.00  0.00     0.108 A 
HETATM    6  C   UNL     1       1.500   2.049   0.000  1.00  0.00     0.054 A 
HETATM    7  O   UNL     1       3.750   0.750   0.000  1.00  0.00    -0.195 OA
ENDROOT
BRANCH   3   8
HETATM    8  C   UNL     1       5.250   3.348   0.000  1.00  0.00     0.191 A 
HETATM    9  N   UNL     1       6.132   4.562   0.000  1.00  0.00    -0.152 NA
HETATM   10  N   UNL     1       7.558   4.098   0.000  1.00  0.00    -0.064 NA
HETATM   11  C   UNL     1       7.558   2.598   0.000  1.00  0.00     0.265 A 
HETATM   12  O   UNL     1       6.132   2.135   0.000  1.00  0.00    -0.292 OA
ENDBRANCH   3   8
TORSDOF 1
