REMARK  4 active torsions:
REMARK  status: ('A' for Active; 'I' for Inactive)
REMARK    1  A    between atoms: C_2  and  S_11 
REMARK    2  A    between atoms: C_5  and  N_7 
REMARK       I    between atoms: N_7  and  C_8 
REMARK    3  A    between atoms: S_11  and  N_14 
REMARK    4  A    between atoms: N_14  and  S_15 
ROOT
HETATM    1  C   UNL     1      -4.821  -5.149   0.000  1.00  0.00     0.024 A 
HETATM    2  C   UNL     1      -3.522  -5.899   0.000  1.00  0.00     0.131 A 
HETATM    3  C   UNL     1      -6.120  -5.899   0.000  1.00  0.00     0.043 A 
HETATM    4  C   UNL     1      -3.522  -7.399   0.000  1.00  0.00     0.024 A 
HETATM    5  C   UNL     1      -6.120  -7.399   0.000  1.00  0.00     0.039 A 
HETATM    6  C   UNL     1      -4.821  -8.149   0.000  1.00  0.00     0.043 A 
ENDROOT
BRANCH   2   7
HETATM    7  S   UNL     1      -2.223  -5.149   0.000  1.00  0.00     0.269 S 
HETATM    8  O   UNL     1      -2.973  -3.850   0.000  1.00  0.00    -0.202 OA
HETATM    9  O   UNL     1      -1.473  -6.449   0.000  1.00  0.00    -0.202 OA
BRANCH   7  10
HETATM   10  N   UNL     1      -0.924  -4.399   0.000  1.00  0.00    -0.139 NA
BRANCH  10  11
HETATM   11  S   UNL     1       0.375  -5.149   0.000  1.00  0.00    -0.060 SA
HETATM   12  C   UNL     1       1.674  -4.399   0.000  1.00  0.00     0.084 C 
HETATM   13  C   UNL     1       0.375  -6.649   0.000  1.00  0.00     0.084 C 
ENDBRANCH  10  11
ENDBRANCH   7  10
ENDBRANCH   2   7
BRANCH   5  14
HETATM   14  N   UNL     1      -7.419  -8.149   0.000  1.00  0.00    -0.232 NA
HETATM   15  C   UNL     1      -8.718  -7.399   0.000  1.00  0.00     0.189 C 
HETATM   16  O   UNL     1     -10.017  -8.149   0.000  1.00  0.00    -0.174 OA
HETATM   17  C   UNL     1      -8.718  -5.899   0.000  1.00  0.00     0.083 C 
ENDBRANCH   5  14
TORSDOF 4
