REMARK  0 active torsions:
REMARK  status: ('A' for Active; 'I' for Inactive)
ROOT
HETATM    1  C   UNL     1       3.627   5.720   0.000  1.00  0.00     0.019 A 
HETATM    2  C   UNL     1       1.021   6.567   0.000  1.00  0.00     0.027 A 
HETATM    3  C   UNL     1       4.237   4.350   0.000  1.00  0.00     0.159 A 
HETATM    4  C   UNL     1       2.135   5.563   0.000  1.00  0.00    -0.011 A 
HETATM    5  C   UNL     1      -0.406   6.103   0.000  1.00  0.00     0.005 A 
HETATM    6  C   UNL     1       1.823   4.096   0.000  1.00  0.00     0.031 A 
HETATM    7  C   UNL     1      -0.718   4.636   0.000  1.00  0.00     0.007 A 
HETATM    8  C   UNL     1       0.397   3.632   0.000  1.00  0.00     0.043 A 
HETATM    9  N   UNL     1       3.123   3.346   0.000  1.00  0.00    -0.338 N 
HETATM   10  H   UNL     1       3.279   1.854   0.000  1.00  0.00     0.168 HD
HETATM   11  C   UNL     1       5.877   7.019   0.000  1.00  0.00     0.048 A 
HETATM   12  C   UNL     1       6.627   8.318   0.000  1.00  0.00     0.097 A 
HETATM   13  O   UNL     1       5.877   4.421   0.000  1.00  0.00    -0.270 OA
HETATM   14  N   UNL     1       7.377   9.617   0.000  1.00  0.00    -0.245 NA
HETATM   15  C   UNL     1       6.627   5.720   0.000  1.00  0.00     0.198 A 
HETATM   16  O   UNL     1       8.127   5.720   0.000  1.00  0.00    -0.304 OA
HETATM   17  C   UNL     1       4.377   7.019   0.000  1.00  0.00     0.062 A 
HETATM   18  C   UNL     1       8.877   7.019   0.000  1.00  0.00     0.198 A 
HETATM   19  C   UNL     1       8.127   8.318   0.000  1.00  0.00     0.107 A 
ENDROOT
TORSDOF 0
