REMARK  3 active torsions:
REMARK  status: ('A' for Active; 'I' for Inactive)
REMARK    1  A    between atoms: N_1  and  C_16 
REMARK    2  A    between atoms: C_4  and  N_20 
REMARK    3  A    between atoms: C_18  and  N_20 
ROOT
HETATM    1  C   UNL     1      -1.125  -9.449   0.000  1.00  0.00     0.058 A 
HETATM    2  C   UNL     1      -2.424 -10.199   0.000  1.00  0.00    -0.016 A 
HETATM    3  C   UNL     1       0.174 -10.199   0.000  1.00  0.00     0.046 A 
HETATM    4  C   UNL     1      -3.723  -9.449   0.000  1.00  0.00     0.027 A 
HETATM    5  C   UNL     1      -5.022 -10.199   0.000  1.00  0.00     0.005 A 
HETATM    6  C   UNL     1       0.174 -11.699   0.000  1.00  0.00     0.011 A 
HETATM    7  C   UNL     1      -2.424 -11.699   0.000  1.00  0.00    -0.047 A 
HETATM    8  C   UNL     1      -5.022 -11.699   0.000  1.00  0.00     0.005 A 
HETATM    9  C   UNL     1      -1.125 -12.449   0.000  1.00  0.00     0.022 A 
HETATM   10  C   UNL     1      -3.723 -12.449   0.000  1.00  0.00     0.022 A 
ENDROOT
BRANCH   1  11
HETATM   11  N   UNL     1      -1.125  -7.949   0.000  1.00  0.00    -0.210 NA
BRANCH  11  12
HETATM   12  C   UNL     1       0.174  -7.199   0.000  1.00  0.00     0.271 A 
HETATM   13  N   UNL     1       1.473  -7.949   0.000  1.00  0.00    -0.231 NA
HETATM   14  C   UNL     1       2.772  -7.199   0.000  1.00  0.00     0.138 A 
HETATM   15  C   UNL     1       2.772  -5.699   0.000  1.00  0.00     0.096 A 
HETATM   16  C   UNL     1       1.473  -4.949   0.000  1.00  0.00     0.142 A 
HETATM   17  O   UNL     1       0.174  -5.699   0.000  1.00  0.00    -0.263 OA
BRANCH  16  18
HETATM   18  N   UNL     1       1.473  -3.449   0.000  1.00  0.00    -0.329 N 
HETATM   19  C   UNL     1       2.223  -2.150   0.000  1.00  0.00     0.127 A 
HETATM   20  C   UNL     1       0.723  -2.150   0.000  1.00  0.00     0.127 A 
ENDBRANCH  16  18
ENDBRANCH  11  12
ENDBRANCH   1  11
TORSDOF 3
