REMARK  2 active torsions:
REMARK  status: ('A' for Active; 'I' for Inactive)
REMARK    1  A    between atoms: C_6  and  N_11 
REMARK    2  A    between atoms: N_11  and  C_12 
ROOT
HETATM    1  N   UNL     1       2.785   1.081   0.000  1.00  0.00     0.143 N 
HETATM    2  C   UNL     1       1.854  -0.095   0.000  1.00  0.00     0.286 A 
HETATM    3  C   UNL     1       3.338  -0.314   0.000  1.00  0.00     0.286 A 
HETATM    4  C   UNL     1       0.215   1.459   0.000  1.00  0.00     0.194 A 
HETATM    5  O   UNL     1       1.391   0.528   0.000  1.00  0.00     0.000 OA
HETATM    6  N   UNL     1       0.433   2.943   0.000  1.00  0.00    -0.248 NA
HETATM    7  C   UNL     1       1.828   3.496   0.000  1.00  0.00     0.163 A 
HETATM    8  C   UNL     1       3.004   2.565   0.000  1.00  0.00     0.277 A 
ENDROOT
BRANCH   4   9
HETATM    9  N   UNL     1      -1.180   0.906   0.000  1.00  0.00    -0.230 NA
BRANCH   9  10
HETATM   10  C   UNL     1      -1.398  -0.578   0.000  1.00  0.00     0.053 A 
HETATM   11  C   UNL     1      -0.222  -1.509   0.000  1.00  0.00     0.045 A 
HETATM   12  C   UNL     1      -0.441  -2.993   0.000  1.00  0.00     0.007 A 
HETATM   13  C   UNL     1      -1.835  -3.546   0.000  1.00  0.00     0.005 A 
HETATM   14  C   UNL     1      -3.011  -2.615   0.000  1.00  0.00     0.023 A 
HETATM   15  C   UNL     1      -2.792  -1.131   0.000  1.00  0.00    -0.030 A 
HETATM   16  C   UNL     1      -3.968  -0.199   0.000  1.00  0.00     0.028 C 
ENDBRANCH   9  10
ENDBRANCH   4   9
TORSDOF 2
