REMARK  1 active torsions:
REMARK  status: ('A' for Active; 'I' for Inactive)
REMARK    1  A    between atoms: C_9  and  N_19 
ROOT
HETATM    1  N   UNL     1      -0.668   5.171   0.000  1.00  0.00    -0.239 NA
HETATM    2  N   UNL     1      -2.436   3.507   0.000  1.00  0.00    -0.336 N 
HETATM    3  H   UNL     1      -3.792   2.867   0.000  1.00  0.00     0.164 HD
HETATM    4  N   UNL     1      -0.675   1.354   0.000  1.00  0.00    -0.104 NA
HETATM    5  C   UNL     1      -0.028   3.814   0.000  1.00  0.00     0.159 A 
HETATM    6  C   UNL     1      -1.121   2.786   0.000  1.00  0.00     0.182 A 
HETATM    7  C   UNL     1      -2.156   4.981   0.000  1.00  0.00     0.229 A 
HETATM    8  C   UNL     1       1.446   3.535   0.000  1.00  0.00     0.254 A 
HETATM    9  O   UNL     1       2.425   4.671   0.000  1.00  0.00    -0.166 OA
HETATM   10  N   UNL     1       1.940   2.119   0.000  1.00  0.00    -0.093 NA
HETATM   11  N   UNL     1       0.962   0.982   0.000  1.00  0.00     0.054 N 
HETATM   12  N   UNL     1       0.788   1.023   0.000  1.00  0.00     0.053 N 
HETATM   13  N   UNL     1       1.233  -0.409   0.000  1.00  0.00     0.206 N 
HETATM   14  C   UNL     1       0.215  -1.511   0.000  1.00  0.00     0.316 C 
ENDROOT
BRANCH  13  15
HETATM   15  C   UNL     1       2.696  -0.740   0.000  1.00  0.00     0.244 A 
HETATM   16  C   UNL     1       3.141  -2.173   0.000  1.00  0.00     0.036 A 
HETATM   17  C   UNL     1       4.604  -2.503   0.000  1.00  0.00     0.002 A 
HETATM   18  C   UNL     1       5.622  -1.402   0.000  1.00  0.00     0.000 A 
HETATM   19  C   UNL     1       5.177   0.031   0.000  1.00  0.00     0.002 A 
HETATM   20  C   UNL     1       3.714   0.361   0.000  1.00  0.00     0.036 A 
ENDBRANCH  13  15
TORSDOF 1
