REMARK  0 active torsions:
REMARK  status: ('A' for Active; 'I' for Inactive)
ROOT
HETATM    1  N   UNL     1     -11.417   1.226   0.000  1.00  0.00    -0.320 N 
HETATM    2  N   UNL     1      -3.623  -0.275   0.000  1.00  0.00    -0.269 NA
HETATM    3  C   UNL     1      -8.819   4.226   0.000  1.00  0.00     0.013 A 
HETATM    4  C   UNL     1     -10.118   3.475   0.000  1.00  0.00     0.044 A 
HETATM    5  C   UNL     1      -7.520   3.475   0.000  1.00  0.00     0.052 A 
HETATM    6  C   UNL     1      -7.520   1.976   0.000  1.00  0.00     0.080 A 
HETATM    7  C   UNL     1     -10.118   1.976   0.000  1.00  0.00     0.041 A 
HETATM    8  C   UNL     1      -8.819   1.226   0.000  1.00  0.00     0.048 A 
HETATM    9  C   UNL     1      -6.221  -0.275   0.000  1.00  0.00     0.114 A 
HETATM   10  C   UNL     1      -4.922  -1.024   0.000  1.00  0.00     0.091 A 
HETATM   11  C   UNL     1      -4.922  -2.525   0.000  1.00  0.00    -0.025 A 
HETATM   12  C   UNL     1      -7.520  -2.525   0.000  1.00  0.00     0.034 A 
HETATM   13  C   UNL     1      -6.221  -3.275   0.000  1.00  0.00     0.028 A 
HETATM   14  C   UNL     1      -3.623  -3.275   0.000  1.00  0.00     0.026 A 
HETATM   15  C   UNL     1      -2.324  -1.024   0.000  1.00  0.00     0.126 A 
HETATM   16  C   UNL     1      -2.324  -2.525   0.000  1.00  0.00     0.031 A 
HETATM   17  C   UNL     1     -11.417  -0.275   0.000  1.00  0.00     0.120 A 
HETATM   18  C   UNL     1     -12.716  -1.024   0.000  1.00  0.00     0.064 A 
HETATM   19  C   UNL     1     -14.015  -0.275   0.000  1.00  0.00     0.009 A 
HETATM   20  C   UNL     1     -14.015   1.226   0.000  1.00  0.00     0.025 A 
HETATM   21  C   UNL     1     -12.716   1.976   0.000  1.00  0.00     0.107 A 
HETATM   22  C   UNL     1     -15.314  -1.024   0.000  1.00  0.00     0.001 C 
HETATM   23  O   UNL     1      -6.221   1.226   0.000  1.00  0.00    -0.310 OA
HETATM   24  C   UNL     1      -7.520  -1.024   0.000  1.00  0.00     0.020 A 
HETATM   25  N   UNL     1     -10.118  -1.024   0.000  1.00  0.00    -0.233 NA
HETATM   26  C   UNL     1      -8.819  -0.275   0.000  1.00  0.00     0.083 A 
ENDROOT
TORSDOF 0
