REMARK  1 active torsions:
REMARK  status: ('A' for Active; 'I' for Inactive)
REMARK    1  A    between atoms: C_2  and  N_16 
REMARK       I    between atoms: C_13  and  N_16 
ROOT
HETATM    1  N   UNL     1      -2.049   7.500   0.000  1.00  0.00    -0.270 NA
HETATM    2  C   UNL     1      -4.647   7.500   0.000  1.00  0.00     0.082 A 
HETATM    3  C   UNL     1      -3.348   6.750   0.000  1.00  0.00     0.087 A 
HETATM    4  C   UNL     1      -5.946   6.750   0.000  1.00  0.00     0.075 A 
HETATM    5  C   UNL     1      -3.348   5.250   0.000  1.00  0.00     0.014 A 
HETATM    6  C   UNL     1      -5.946   5.250   0.000  1.00  0.00    -0.001 A 
HETATM    7  C   UNL     1      -4.647   4.500   0.000  1.00  0.00     0.077 A 
HETATM    8  C   UNL     1      -2.049   4.500   0.000  1.00  0.00     0.032 A 
HETATM    9  C   UNL     1      -0.750   6.750   0.000  1.00  0.00     0.126 A 
HETATM   10  C   UNL     1      -0.750   5.250   0.000  1.00  0.00     0.031 A 
HETATM   11  O   UNL     1      -7.245   4.500   0.000  1.00  0.00     0.000 OA
HETATM   12  C   UNL     1      -8.544   5.250   0.000  1.00  0.00     0.000 C 
HETATM   13  C   UNL     1      -5.946   2.250   0.000  1.00  0.00     0.190 A 
HETATM   14  O   UNL     1      -7.245   3.000   0.000  1.00  0.00    -0.174 OA
HETATM   15  C   UNL     1      -5.946   0.750   0.000  1.00  0.00     0.083 C 
HETATM   16  N   UNL     1      -4.647   3.000   0.000  1.00  0.00    -0.224 NA
ENDROOT
BRANCH   2  17
HETATM   17  N   UNL     1      -4.647   9.000   0.000  1.00  0.00    -0.226 NA
HETATM   18  C   UNL     1      -5.946   9.750   0.000  1.00  0.00     0.190 C 
HETATM   19  O   UNL     1      -5.946  11.250   0.000  1.00  0.00    -0.174 OA
HETATM   20  C   UNL     1      -7.245   9.000   0.000  1.00  0.00     0.083 C 
ENDBRANCH   2  17
TORSDOF 1
