REMARK  2 active torsions:
REMARK  status: ('A' for Active; 'I' for Inactive)
REMARK    1  A    between atoms: C_6  and  C_16 
REMARK    2  A    between atoms: C_17  and  C_20 
ROOT
HETATM    1  N   UNL     1      -0.276  -8.153   0.000  1.00  0.00    -0.313 N 
HETATM    2  C   UNL     1      -4.092  -5.768   0.000  1.00  0.00     0.012 A 
HETATM    3  C   UNL     1      -2.768  -5.064   0.000  1.00  0.00     0.053 A 
HETATM    4  C   UNL     1      -4.145  -7.267   0.000  1.00  0.00     0.028 A 
HETATM    5  C   UNL     1      -1.496  -5.859   0.000  1.00  0.00     0.093 A 
HETATM    6  C   UNL     1      -2.873  -8.062   0.000  1.00  0.00    -0.009 A 
HETATM    7  C   UNL     1      -1.548  -7.358   0.000  1.00  0.00     0.078 A 
HETATM    8  C   UNL     1       1.372  -5.249   0.000  1.00  0.00     0.074 A 
HETATM    9  C   UNL     1       2.030  -6.597   0.000  1.00  0.00     0.008 A 
HETATM   10  C   UNL     1       2.211  -4.005   0.000  1.00  0.00     0.051 A 
HETATM   11  C   UNL     1       3.708  -4.110   0.000  1.00  0.00     0.007 A 
HETATM   12  C   UNL     1       3.526  -6.702   0.000  1.00  0.00     0.029 A 
HETATM   13  C   UNL     1       1.191  -7.841   0.000  1.00  0.00     0.039 A 
HETATM   14  C   UNL     1       1.941  -9.140   0.000  1.00  0.00     0.050 A 
HETATM   15  C   UNL     1       0.937 -10.255   0.000  1.00  0.00     0.050 A 
HETATM   16  C   UNL     1      -0.433  -9.644   0.000  1.00  0.00     0.037 A 
HETATM   17  C   UNL     1       4.365  -5.458   0.000  1.00  0.00     0.005 A 
HETATM   18  O   UNL     1      -0.171  -5.154   0.000  1.00  0.00    -0.315 OA
ENDROOT
BRANCH  16  19
HETATM   19  C   UNL     1      -1.732 -10.394   0.000  1.00  0.00    -0.014 A 
HETATM   20  C   UNL     1      -3.031  -9.644   0.000  1.00  0.00    -0.028 A 
HETATM   21  C   UNL     1      -4.330 -10.394   0.000  1.00  0.00     0.026 A 
HETATM   22  C   UNL     1      -4.330 -11.894   0.000  1.00  0.00     0.005 A 
HETATM   23  C   UNL     1      -3.031 -12.644   0.000  1.00  0.00     0.005 A 
HETATM   24  C   UNL     1      -1.732 -11.894   0.000  1.00  0.00     0.027 A 
ENDBRANCH  16  19
TORSDOF 2
