REMARK  3 active torsions:
REMARK  status: ('A' for Active; 'I' for Inactive)
REMARK    1  A    between atoms: P_3  and  N_5 
REMARK    2  A    between atoms: C_7  and  C_15 
REMARK    3  A    between atoms: C_9  and  N_11 
ROOT
HETATM    1  O   UNL     1      -6.666  -1.409   0.000  1.00  0.00    -0.277 OA
HETATM    2  O   UNL     1      -5.367  -3.659   0.000  1.00  0.00    -0.277 OA
HETATM    3  P   UNL     1      -5.367  -2.159   0.000  1.00  0.00     0.440 P 
HETATM    4  O   UNL     1      -4.854  -0.750   0.000  1.00  0.00    -0.234 OA
HETATM    5  C   UNL     1      -7.965  -2.160   0.000  1.00  0.00     0.182 A 
HETATM    6  C   UNL     1      -7.965  -3.660   0.000  1.00  0.00     0.182 A 
HETATM    7  C   UNL     1      -6.666  -4.410   0.000  1.00  0.00     0.182 A 
HETATM    8  C   UNL     1      -8.478  -5.069   0.000  1.00  0.00     0.034 C 
ENDROOT
BRANCH   3   9
HETATM    9  N   UNL     1      -3.889  -2.420   0.000  1.00  0.00    -0.267 N 
HETATM   10  C   UNL     1      -2.480  -1.907   0.000  1.00  0.00     0.150 A 
HETATM   11  C   UNL     1      -2.740  -3.384   0.000  1.00  0.00     0.043 A 
BRANCH  11  12
HETATM   12  C   UNL     1      -2.227  -4.794   0.000  1.00  0.00     0.041 C 
HETATM   13  C   UNL     1      -0.750  -5.054   0.000  1.00  0.00     0.006 C 
ENDBRANCH  11  12
ENDBRANCH   3   9
BRANCH   6  14
HETATM   14  N   UNL     1      -9.442  -3.399   0.000  1.00  0.00    -0.137 N 
HETATM   15  O   UNL     1      -9.955  -1.990   0.000  1.00  0.00    -0.536 OA
HETATM   16  O   UNL     1     -10.406  -4.548   0.000  1.00  0.00    -0.536 OA
ENDBRANCH   6  14
TORSDOF 3
