REMARK  3 active torsions:
REMARK  status: ('A' for Active; 'I' for Inactive)
REMARK    1  A    between atoms: C_7  and  C_16 
REMARK    2  A    between atoms: C_16  and  O_18 
REMARK    3  A    between atoms: O_18  and  C_19 
ROOT
HETATM    1  O   UNL     1      -5.946  -0.750   0.000  1.00  0.00    -0.195 OA
HETATM    2  C   UNL     1      -5.946  -2.250   0.000  1.00  0.00     0.108 A 
HETATM    3  C   UNL     1      -4.647  -3.000   0.000  1.00  0.00     0.080 A 
HETATM    4  C   UNL     1      -7.245  -3.000   0.000  1.00  0.00    -0.001 A 
HETATM    5  C   UNL     1      -8.544  -2.250   0.000  1.00  0.00     0.080 A 
HETATM    6  C   UNL     1      -9.843  -3.000   0.000  1.00  0.00     0.095 A 
HETATM    7  C   UNL     1      -4.647  -4.500   0.000  1.00  0.00     0.015 A 
HETATM    8  C   UNL     1      -7.245  -4.500   0.000  1.00  0.00    -0.035 A 
HETATM    9  C   UNL     1      -9.843  -4.500   0.000  1.00  0.00     0.094 A 
HETATM   10  C   UNL     1      -5.946  -5.250   0.000  1.00  0.00     0.049 A 
HETATM   11  C   UNL     1      -8.544  -5.250   0.000  1.00  0.00     0.075 A 
HETATM   12  O   UNL     1     -11.142  -2.250   0.000  1.00  0.00    -0.330 OA
HETATM   13  C   UNL     1     -12.441  -3.000   0.000  1.00  0.00     0.181 A 
HETATM   14  O   UNL     1     -11.142  -5.250   0.000  1.00  0.00    -0.330 OA
HETATM   15  C   UNL     1     -12.441  -4.500   0.000  1.00  0.00     0.181 A 
ENDROOT
BRANCH   7  16
HETATM   16  C   UNL     1      -3.348  -5.250   0.000  1.00  0.00     0.221 C 
HETATM   17  O   UNL     1      -2.049  -4.500   0.000  1.00  0.00    -0.164 OA
BRANCH  16  18
HETATM   18  O   UNL     1      -3.348  -6.750   0.000  1.00  0.00    -0.309 OA
BRANCH  18  19
HETATM   19  C   UNL     1      -2.049  -7.500   0.000  1.00  0.00     0.151 C 
HETATM   20  C   UNL     1      -0.750  -6.750   0.000  1.00  0.00     0.035 C 
ENDBRANCH  18  19
ENDBRANCH  16  18
ENDBRANCH   7  16
TORSDOF 3
