REMARK  1 active torsions:
REMARK  status: ('A' for Active; 'I' for Inactive)
REMARK    1  A    between atoms: C_6  and  O_7 
ROOT
HETATM    1  O   UNL     1      -1.838  -2.120   0.000  1.00  0.00    -0.258 OA
HETATM    2  C   UNL     1      -0.200   0.393   0.000  1.00  0.00     0.156 A 
HETATM    3  C   UNL     1      -1.697   0.474   0.000  1.00  0.00     0.203 A 
HETATM    4  C   UNL     1       0.479  -0.944   0.000  1.00  0.00     0.159 A 
HETATM    5  C   UNL     1      -0.340  -2.201   0.000  1.00  0.00     0.254 A 
HETATM    6  C   UNL     1      -2.517  -0.782   0.000  1.00  0.00     0.229 A 
HETATM    7  O   UNL     1      -2.376   1.812   0.000  1.00  0.00    -0.183 OA
HETATM    8  N   UNL     1       1.977  -1.025   0.000  1.00  0.00    -0.210 NA
HETATM    9  C   UNL     1       2.796   0.231   0.000  1.00  0.00     0.283 A 
HETATM   10  O   UNL     1       4.294   0.150   0.000  1.00  0.00    -0.165 OA
HETATM   11  C   UNL     1       2.117   1.569   0.000  1.00  0.00     0.439 A 
HETATM   12  F   UNL     1       0.780   0.890   0.000  1.00  0.00    -0.294 F 
HETATM   13  F   UNL     1       3.455   2.248   0.000  1.00  0.00    -0.164 F 
HETATM   14  F   UNL     1       1.439   2.907   0.000  1.00  0.00    -0.164 F 
HETATM   15  O   UNL     1       0.339  -3.538   0.000  1.00  0.00    -0.161 OA
ENDROOT
BRANCH   6  16
HETATM   16  O   UNL     1      -4.014  -0.701   0.000  1.00  0.00    -0.306 OA
HETATM   17  C   UNL     1      -4.693   0.636   0.000  1.00  0.00     0.184 C 
ENDBRANCH   6  16
TORSDOF 1
