REMARK  4 active torsions:
REMARK  status: ('A' for Active; 'I' for Inactive)
REMARK    1  A    between atoms: C_7  and  C_11 
REMARK    2  A    between atoms: C_11  and  C_12 
REMARK    3  A    between atoms: C_12  and  C_13 
REMARK    4  A    between atoms: C_13  and  C_14 
ROOT
HETATM    1  O   UNL     1       0.750   5.250   0.000  1.00  0.00    -0.176 OA
HETATM    2  H   UNL     1       0.750   2.250   0.000  1.00  0.00     0.170 HD
HETATM    3  N   UNL     1       2.049   3.000   0.000  1.00  0.00    -0.314 N 
HETATM    4  S   UNL     1       3.348   0.750   0.000  1.00  0.00    -0.040 SA
HETATM    5  N   UNL     1       4.647   3.000   0.000  1.00  0.00    -0.338 N 
HETATM    6  H   UNL     1       5.946   2.250   0.000  1.00  0.00     0.168 HD
HETATM    7  C   UNL     1       4.647   4.500   0.000  1.00  0.00     0.021 A 
HETATM    8  C   UNL     1       3.348   5.250   0.000  1.00  0.00     0.112 A 
HETATM    9  C   UNL     1       2.049   4.500   0.000  1.00  0.00     0.175 A 
HETATM   10  C   UNL     1       3.348   2.250   0.000  1.00  0.00     0.177 A 
ENDROOT
BRANCH   7  11
HETATM   11  C   UNL     1       5.946   5.250   0.000  1.00  0.00     0.040 C 
BRANCH  11  12
HETATM   12  C   UNL     1       7.245   4.500   0.000  1.00  0.00     0.006 C 
BRANCH  12  13
HETATM   13  C   UNL     1       8.544   5.250   0.000  1.00  0.00     0.000 C 
BRANCH  13  14
HETATM   14  C   UNL     1       9.843   4.500   0.000  1.00  0.00     0.000 C 
HETATM   15  C   UNL     1      11.142   5.250   0.000  1.00  0.00     0.000 C 
ENDBRANCH  13  14
ENDBRANCH  12  13
ENDBRANCH  11  12
ENDBRANCH   7  11
TORSDOF 4
