REMARK  3 active torsions:
REMARK  status: ('A' for Active; 'I' for Inactive)
REMARK    1  A    between atoms: C_3  and  N_10 
REMARK    2  A    between atoms: C_6  and  N_7 
REMARK    3  A    between atoms: N_10  and  C_11 
ROOT
HETATM    1  C   UNL     1      -4.821  -3.650   0.000  1.00  0.00     0.042 A 
HETATM    2  C   UNL     1      -6.120  -4.399   0.000  1.00  0.00     0.012 A 
HETATM    3  C   UNL     1      -3.522  -4.399   0.000  1.00  0.00     0.045 A 
HETATM    4  C   UNL     1      -3.522  -5.899   0.000  1.00  0.00     0.087 A 
HETATM    5  C   UNL     1      -6.120  -5.899   0.000  1.00  0.00     0.047 A 
HETATM    6  C   UNL     1      -4.821  -6.649   0.000  1.00  0.00     0.088 A 
ENDROOT
BRANCH   3   7
HETATM    7  N   UNL     1      -2.223  -3.650   0.000  1.00  0.00    -0.230 NA
BRANCH   7   8
HETATM    8  C   UNL     1      -0.924  -4.399   0.000  1.00  0.00     0.185 A 
HETATM    9  S   UNL     1       0.375  -3.650   0.000  1.00  0.00    -0.076 SA
HETATM   10  C   UNL     1       1.674  -4.399   0.000  1.00  0.00     0.067 A 
HETATM   11  C   UNL     1       1.674  -5.899   0.000  1.00  0.00     0.038 A 
HETATM   12  C   UNL     1       0.375  -6.649   0.000  1.00  0.00     0.129 A 
HETATM   13  N   UNL     1      -0.924  -5.899   0.000  1.00  0.00    -0.248 NA
ENDBRANCH   7   8
ENDBRANCH   3   7
BRANCH   6  14
HETATM   14  N   UNL     1      -4.821  -8.149   0.000  1.00  0.00    -0.122 N 
HETATM   15  O   UNL     1      -6.120  -8.899   0.000  1.00  0.00    -0.532 OA
HETATM   16  O   UNL     1      -3.522  -8.899   0.000  1.00  0.00    -0.532 OA
ENDBRANCH   6  14
TORSDOF 3
