REMARK  0 active torsions:
REMARK  status: ('A' for Active; 'I' for Inactive)
ROOT
HETATM    1  N   UNL     1      -0.259  -7.170   0.000  1.00  0.00    -0.313 N 
HETATM    2  C   UNL     1      -0.259  -1.695   0.000  1.00  0.00     0.005 A 
HETATM    3  C   UNL     1      -1.558  -2.445   0.000  1.00  0.00     0.007 A 
HETATM    4  C   UNL     1       1.040  -2.445   0.000  1.00  0.00     0.032 A 
HETATM    5  C   UNL     1       1.040  -3.945   0.000  1.00  0.00     0.039 A 
HETATM    6  C   UNL     1      -1.558  -3.945   0.000  1.00  0.00     0.044 A 
HETATM    7  C   UNL     1      -0.259  -4.695   0.000  1.00  0.00     0.041 A 
HETATM    8  C   UNL     1       2.422  -7.740   0.000  1.00  0.00     0.096 A 
HETATM    9  C   UNL     1       0.955  -8.052   0.000  1.00  0.00     0.078 A 
HETATM   10  C   UNL     1       3.426  -8.854   0.000  1.00  0.00     0.053 A 
HETATM   11  C   UNL     1       2.962 -10.281   0.000  1.00  0.00     0.012 A 
HETATM   12  C   UNL     1       0.491  -9.478   0.000  1.00  0.00    -0.007 A 
HETATM   13  C   UNL     1       1.495 -10.593   0.000  1.00  0.00     0.028 A 
HETATM   14  C   UNL     1      -1.009  -9.478   0.000  1.00  0.00    -0.013 A 
HETATM   15  C   UNL     1      -2.939  -7.740   0.000  1.00  0.00     0.044 A 
HETATM   16  C   UNL     1      -1.472  -8.052   0.000  1.00  0.00     0.037 A 
HETATM   17  C   UNL     1      -3.943  -8.854   0.000  1.00  0.00     0.007 A 
HETATM   18  C   UNL     1      -3.479 -10.281   0.000  1.00  0.00     0.005 A 
HETATM   19  C   UNL     1      -2.012 -10.593   0.000  1.00  0.00     0.027 A 
HETATM   20  C   UNL     1       2.340  -4.695   0.000  1.00  0.00     0.229 A 
HETATM   21  O   UNL     1       2.340  -6.195   0.000  1.00  0.00    -0.287 OA
HETATM   22  O   UNL     1       3.639  -3.945   0.000  1.00  0.00    -0.163 OA
ENDROOT
TORSDOF 0
