REMARK  2 active torsions:
REMARK  status: ('A' for Active; 'I' for Inactive)
REMARK    1  A    between atoms: C_9  and  N_15 
REMARK       I    between atoms: C_12  and  N_14 
REMARK    2  A    between atoms: N_14  and  N_15 
ROOT
HETATM    1  C   UNL     1       9.285   5.270   0.000  1.00  0.00     0.000 A 
HETATM    2  C   UNL     1      10.166   4.056   0.000  1.00  0.00     0.000 A 
HETATM    3  C   UNL     1       7.858   4.806   0.000  1.00  0.00     0.001 A 
HETATM    4  C   UNL     1       6.559   5.556   0.000  1.00  0.00     0.006 A 
HETATM    5  C   UNL     1       5.260   4.806   0.000  1.00  0.00     0.043 A 
HETATM    6  C   UNL     1       7.425   4.056   0.000  1.00  0.00     0.006 A 
HETATM    7  C   UNL     1       9.285   2.843   0.000  1.00  0.00     0.000 A 
HETATM    8  C   UNL     1       7.858   3.307   0.000  1.00  0.00     0.005 A 
HETATM    9  C   UNL     1       5.260   3.307   0.000  1.00  0.00     0.058 A 
HETATM   10  C   UNL     1       6.559   2.557   0.000  1.00  0.00     0.038 A 
ENDROOT
BRANCH   9  11
HETATM   11  N   UNL     1       3.961   2.557   0.000  1.00  0.00    -0.154 NA
BRANCH  11  12
HETATM   12  N   UNL     1       2.662   3.307   0.000  1.00  0.00    -0.106 NA
HETATM   13  C   UNL     1       1.363   2.557   0.000  1.00  0.00     0.304 C 
HETATM   14  N   UNL     1       0.064   3.307   0.000  1.00  0.00    -0.051 NA
HETATM   15  O   UNL     1       1.363   1.056   0.000  1.00  0.00    -0.151 OA
ENDBRANCH  11  12
ENDBRANCH   9  11
TORSDOF 2
