REMARK  5 active torsions:
REMARK  status: ('A' for Active; 'I' for Inactive)
REMARK    1  A    between atoms: C_11  and  O_26 
REMARK    2  A    between atoms: C_19  and  O_23 
REMARK    3  A    between atoms: O_23  and  C_24 
REMARK    4  A    between atoms: C_24  and  C_25 
REMARK    5  A    between atoms: C_25  and  O_26 
ROOT
HETATM    1  C   UNL     1       2.668   9.285   0.000  1.00  0.00     0.174 C 
ENDROOT
BRANCH   1   2
HETATM    2  O   UNL     1       2.825   7.793   0.000  1.00  0.00    -0.354 OA
BRANCH   2   3
HETATM    3  C   UNL     1       1.612   6.912   0.000  1.00  0.00     0.116 A 
HETATM    4  C   UNL     1       0.185   7.375   0.000  1.00  0.00     0.030 A 
HETATM    5  C   UNL     1      -0.697   6.162   0.000  1.00  0.00     0.003 A 
HETATM    6  C   UNL     1      -0.697   4.662   0.000  1.00  0.00     0.005 A 
HETATM    7  C   UNL     1       0.185   4.948   0.000  1.00  0.00     0.005 A 
HETATM    8  C   UNL     1      -1.578   3.448   0.000  1.00  0.00     0.032 A 
HETATM    9  C   UNL     1       0.730   4.198   0.000  1.00  0.00     0.030 A 
HETATM   10  C   UNL     1      -0.697   2.235   0.000  1.00  0.00     0.142 A 
HETATM   11  O   UNL     1       0.418   1.231   0.000  1.00  0.00    -0.354 OA
HETATM   12  C   UNL     1       0.730   2.698   0.000  1.00  0.00     0.142 A 
HETATM   13  C   UNL     1       1.612   5.412   0.000  1.00  0.00     0.030 A 
ENDBRANCH   2   3
ENDBRANCH   1   2
BRANCH   1  14
HETATM   14  C   UNL     1       3.882  10.167   0.000  1.00  0.00     0.174 C 
BRANCH  14  15
HETATM   15  O   UNL     1       3.725  11.659   0.000  1.00  0.00    -0.354 OA
BRANCH  15  16
HETATM   16  C   UNL     1       4.939  12.540   0.000  1.00  0.00     0.116 A 
HETATM   17  C   UNL     1       4.939  14.040   0.000  1.00  0.00     0.030 A 
HETATM   18  C   UNL     1       6.365  14.504   0.000  1.00  0.00     0.003 A 
HETATM   19  C   UNL     1       7.792  14.040   0.000  1.00  0.00     0.005 A 
HETATM   20  C   UNL     1       7.247  13.290   0.000  1.00  0.00     0.005 A 
HETATM   21  C   UNL     1       9.219  14.504   0.000  1.00  0.00     0.032 A 
HETATM   22  C   UNL     1       7.792  12.540   0.000  1.00  0.00     0.030 A 
HETATM   23  C   UNL     1      10.100  13.290   0.000  1.00  0.00     0.142 A 
HETATM   24  O   UNL     1      10.710  11.920   0.000  1.00  0.00    -0.354 OA
HETATM   25  C   UNL     1       9.219  12.077   0.000  1.00  0.00     0.142 A 
HETATM   26  C   UNL     1       6.365  12.077   0.000  1.00  0.00     0.030 A 
ENDBRANCH  15  16
ENDBRANCH  14  15
ENDBRANCH   1  14
TORSDOF 5
