REMARK  0 active torsions:
REMARK  status: ('A' for Active; 'I' for Inactive)
ROOT
HETATM    1  O   UNL     1      -1.024   6.274   0.000  1.00  0.00    -0.144 OA
HETATM    2  H   UNL     1      -1.024   3.275   0.000  1.00  0.00     0.173 HD
HETATM    3  N   UNL     1       0.275   4.024   0.000  1.00  0.00    -0.278 N 
HETATM    4  H   UNL     1       1.574   7.774   0.000  1.00  0.00     0.297 HD
HETATM    5  N   UNL     1       1.574   6.274   0.000  1.00  0.00     0.060 N 
HETATM    6  O   UNL     1       1.574   1.774   0.000  1.00  0.00    -0.151 OA
HETATM    7  N   UNL     1       2.873   4.024   0.000  1.00  0.00    -0.284 N 
HETATM    8  S   UNL     1       4.299   5.988   0.000  1.00  0.00    -0.135 SA
HETATM    9  C   UNL     1       7.140   8.847   0.000  1.00  0.00     0.005 A 
HETATM   10  C   UNL     1       6.984   7.355   0.000  1.00  0.00     0.027 A 
HETATM   11  C   UNL     1       5.927   9.728   0.000  1.00  0.00     0.002 A 
HETATM   12  C   UNL     1       5.613   6.745   0.000  1.00  0.00    -0.027 A 
HETATM   13  C   UNL     1       4.556   9.118   0.000  1.00  0.00     0.015 A 
HETATM   14  C   UNL     1       4.400   7.626   0.000  1.00  0.00     0.082 A 
HETATM   15  C   UNL     1       2.873   5.524   0.000  1.00  0.00     0.297 A 
HETATM   16  C   UNL     1       0.275   5.524   0.000  1.00  0.00     0.360 A 
HETATM   17  C   UNL     1       5.181   4.774   0.000  1.00  0.00     0.066 A 
HETATM   18  C   UNL     1       4.299   3.561   0.000  1.00  0.00     0.117 A 
HETATM   19  C   UNL     1       1.574   3.275   0.000  1.00  0.00     0.260 A 
HETATM   20  C   UNL     1       3.029   7.016   0.000  1.00  0.00     0.257 A 
ENDROOT
TORSDOF 0
