REMARK  0 active torsions:
REMARK  status: ('A' for Active; 'I' for Inactive)
ROOT
HETATM    1 CL   UNL     1      -5.571   2.350   0.000  1.00  0.00    -0.086 Cl
HETATM    2  N   UNL     1      -2.973   0.851   0.000  1.00  0.00    -0.270 NA
HETATM    3  C   UNL     1      -5.571   0.851   0.000  1.00  0.00     0.052 A 
HETATM    4  C   UNL     1      -6.870   0.101   0.000  1.00  0.00     0.040 A 
HETATM    5  C   UNL     1      -4.272   0.101   0.000  1.00  0.00     0.080 A 
HETATM    6  C   UNL     1      -4.272  -1.399   0.000  1.00  0.00     0.017 A 
HETATM    7  C   UNL     1      -6.870  -1.399   0.000  1.00  0.00     0.010 A 
HETATM    8  C   UNL     1      -5.571  -2.150   0.000  1.00  0.00     0.030 A 
HETATM    9  C   UNL     1      -2.973  -2.150   0.000  1.00  0.00     0.108 A 
HETATM   10  C   UNL     1      -1.674   0.101   0.000  1.00  0.00     0.133 A 
HETATM   11  C   UNL     1      -1.674  -1.399   0.000  1.00  0.00     0.080 A 
HETATM   12  O   UNL     1      -2.973  -3.650   0.000  1.00  0.00    -0.195 OA
ENDROOT
TORSDOF 0
