REMARK  0 active torsions:
REMARK  status: ('A' for Active; 'I' for Inactive)
ROOT
HETATM    1  O   UNL     1       6.151   4.417   0.000  1.00  0.00    -0.176 OA
HETATM    2  O   UNL     1       6.151   9.613   0.000  1.00  0.00    -0.176 OA
HETATM    3  N   UNL     1       6.151   7.015   0.000  1.00  0.00    -0.318 N 
HETATM    4  H   UNL     1       7.651   7.015   0.000  1.00  0.00     0.169 HD
HETATM    5  C   UNL     1       5.401   8.314   0.000  1.00  0.00     0.170 A 
HETATM    6  C   UNL     1       3.901   8.314   0.000  1.00  0.00     0.096 A 
HETATM    7  C   UNL     1       3.151   7.015   0.000  1.00  0.00     0.022 A 
HETATM    8  C   UNL     1       2.401   8.314   0.000  1.00  0.00     0.045 A 
HETATM    9  C   UNL     1       0.901   8.314   0.000  1.00  0.00     0.003 A 
HETATM   10  C   UNL     1       0.151   7.015   0.000  1.00  0.00     0.009 A 
HETATM   11  C   UNL     1       2.401   5.716   0.000  1.00  0.00     0.035 A 
HETATM   12  C   UNL     1       3.901   5.716   0.000  1.00  0.00     0.078 A 
HETATM   13  C   UNL     1       0.901   5.716   0.000  1.00  0.00     0.096 A 
HETATM   14  C   UNL     1       5.401   5.716   0.000  1.00  0.00     0.170 A 
HETATM   15  C   UNL     1       0.151   4.417   0.000  1.00  0.00     0.387 A 
HETATM   16  F   UNL     1      -1.148   5.167   0.000  1.00  0.00    -0.171 F 
HETATM   17  F   UNL     1      -0.599   3.118   0.000  1.00  0.00    -0.171 F 
HETATM   18  F   UNL     1       1.450   3.667   0.000  1.00  0.00    -0.232 F 
HETATM   19  C   UNL     1       3.151   9.613   0.000  1.00  0.00     0.309 A 
HETATM   20  N   UNL     1       2.401  10.912   0.000  1.00  0.00     0.616 N 
HETATM   21  C   UNL     1       3.151   4.417   0.000  1.00  0.00     0.113 A 
HETATM   22  N   UNL     1       2.401   3.118   0.000  1.00  0.00    -0.073 NA
ENDROOT
TORSDOF 0
