REMARK  6 active torsions:
REMARK  status: ('A' for Active; 'I' for Inactive)
REMARK    1  A    between atoms: C_4  and  C_14 
REMARK    2  A    between atoms: C_7  and  C_18 
REMARK       I    between atoms: C_14  and  N_16 
REMARK    3  A    between atoms: N_16  and  N_17 
REMARK    4  A    between atoms: N_17  and  C_18 
REMARK    5  A    between atoms: N_19  and  C_20 
REMARK    6  A    between atoms: C_20  and  C_21 
ROOT
HETATM    1  C   UNL     1      -7.541   1.939   0.000  1.00  0.00     0.009 A 
HETATM    2  C   UNL     1      -6.242   1.189   0.000  1.00  0.00     0.044 A 
HETATM    3  C   UNL     1      -8.840   1.189   0.000  1.00  0.00     0.032 A 
HETATM    4  C   UNL     1      -6.242  -0.311   0.000  1.00  0.00     0.038 A 
HETATM    5  C   UNL     1      -8.840  -0.311   0.000  1.00  0.00     0.040 A 
HETATM    6  C   UNL     1      -7.541  -1.061   0.000  1.00  0.00     0.032 A 
HETATM    7  N   UNL     1      -4.943  -1.061   0.000  1.00  0.00    -0.348 N 
HETATM    8  C   UNL     1      -4.943  -2.561   0.000  1.00  0.00     0.118 A 
HETATM    9  C   UNL     1      -6.242  -3.311   0.000  1.00  0.00     0.107 A 
HETATM   10 CL   UNL     1      -7.541  -2.561   0.000  1.00  0.00    -0.168 Cl
ENDROOT
BRANCH   3  11
HETATM   11  C   UNL     1     -10.139   1.939   0.000  1.00  0.00     0.150 C 
BRANCH  11  12
HETATM   12  N   UNL     1     -11.438   1.189   0.000  1.00  0.00    -0.173 NA
BRANCH  12  13
HETATM   13  N   UNL     1     -12.737   1.939   0.000  1.00  0.00    -0.124 NA
HETATM   14  C   UNL     1     -12.737   3.439   0.000  1.00  0.00     0.239 C 
HETATM   15  O   UNL     1     -11.438   4.189   0.000  1.00  0.00    -0.167 OA
BRANCH  14  16
HETATM   16  C   UNL     1     -14.036   4.189   0.000  1.00  0.00     0.086 A 
HETATM   17  S   UNL     1     -15.406   3.579   0.000  1.00  0.00    -0.085 SA
HETATM   18  C   UNL     1     -16.410   4.694   0.000  1.00  0.00     0.154 A 
HETATM   19  N   UNL     1     -15.660   5.993   0.000  1.00  0.00    -0.265 NA
HETATM   20  C   UNL     1     -17.902   4.537   0.000  1.00  0.00     0.039 C 
HETATM   21  C   UNL     1     -14.193   5.681   0.000  1.00  0.00     0.064 A 
HETATM   22  C   UNL     1     -13.078   6.685   0.000  1.00  0.00     0.052 C 
ENDBRANCH  14  16
ENDBRANCH  12  13
ENDBRANCH  11  12
ENDBRANCH   3  11
BRANCH   7  23
HETATM   23  C   UNL     1      -3.644  -0.311   0.000  1.00  0.00     0.119 C 
BRANCH  23  24
HETATM   24  C   UNL     1      -2.345  -1.061   0.000  1.00  0.00     0.119 C 
HETATM   25 CL   UNL     1      -1.046  -0.311   0.000  1.00  0.00    -0.112 Cl
ENDBRANCH  23  24
ENDBRANCH   7  23
TORSDOF 6
