REMARK  5 active torsions:
REMARK  status: ('A' for Active; 'I' for Inactive)
REMARK    1  A    between atoms: N_3  and  C_10 
REMARK    2  A    between atoms: N_3  and  C_25 
REMARK    3  A    between atoms: C_7  and  C_25 
REMARK    4  A    between atoms: C_8  and  N_24 
REMARK    5  A    between atoms: C_15  and  N_24 
ROOT
HETATM    1  N   UNL     1      -3.623  -7.774   0.000  1.00  0.00    -0.200 NA
HETATM    2  N   UNL     1      -2.324 -10.024   0.000  1.00  0.00    -0.196 NA
HETATM    3  C   UNL     1      -2.324  -7.024   0.000  1.00  0.00     0.154 A 
HETATM    4  C   UNL     1      -1.024  -7.774   0.000  1.00  0.00     0.069 A 
HETATM    5  C   UNL     1      -1.024  -9.274   0.000  1.00  0.00     0.165 A 
HETATM    6  C   UNL     1      -3.623  -9.274   0.000  1.00  0.00     0.240 A 
HETATM    7  N   UNL     1      -4.922 -10.024   0.000  1.00  0.00    -0.059 NA
HETATM    8  N   UNL     1      -2.324  -5.524   0.000  1.00  0.00    -0.080 NA
ENDROOT
BRANCH   4   9
HETATM    9  C   UNL     1       0.275  -7.024   0.000  1.00  0.00     0.157 C 
BRANCH   9  10
HETATM   10  N   UNL     1       1.573  -7.774   0.000  1.00  0.00    -0.274 NA
BRANCH  10  11
HETATM   11  C   UNL     1       2.873  -7.024   0.000  1.00  0.00     0.033 A 
HETATM   12  C   UNL     1       2.873  -5.524   0.000  1.00  0.00     0.046 A 
HETATM   13  C   UNL     1       4.172  -4.774   0.000  1.00  0.00     0.035 A 
HETATM   14  C   UNL     1       5.471  -5.524   0.000  1.00  0.00    -0.009 A 
HETATM   15 BR   UNL     1       6.770  -4.774   0.000  1.00  0.00    -0.058 Br
HETATM   16  C   UNL     1       5.471  -7.024   0.000  1.00  0.00     0.035 A 
HETATM   17  C   UNL     1       4.172  -7.774   0.000  1.00  0.00     0.046 A 
ENDBRANCH  10  11
ENDBRANCH   9  10
ENDBRANCH   4   9
BRANCH   5  18
HETATM   18  N   UNL     1       0.275 -10.024   0.000  1.00  0.00    -0.235 NA
BRANCH  18  19
HETATM   19  C   UNL     1       0.275 -11.524   0.000  1.00  0.00     0.039 A 
HETATM   20  C   UNL     1       1.574 -12.274   0.000  1.00  0.00     0.046 A 
HETATM   21  C   UNL     1       1.574 -13.774   0.000  1.00  0.00     0.035 A 
HETATM   22  C   UNL     1       0.275 -14.524   0.000  1.00  0.00    -0.009 A 
HETATM   23 BR   UNL     1       0.275 -16.024   0.000  1.00  0.00    -0.058 Br
HETATM   24  C   UNL     1      -1.024 -13.774   0.000  1.00  0.00     0.035 A 
HETATM   25  C   UNL     1      -1.024 -12.274   0.000  1.00  0.00     0.046 A 
ENDBRANCH  18  19
ENDBRANCH   5  18
TORSDOF 5
