REMARK  2 active torsions:
REMARK  status: ('A' for Active; 'I' for Inactive)
REMARK    1  A    between atoms: C_7  and  C_12 
REMARK    2  A    between atoms: C_9  and  N_11 
REMARK       I    between atoms: N_11  and  C_12 
ROOT
HETATM    1  N   UNL     1      -0.468  -0.735   0.000  1.00  0.00    -0.202 NA
HETATM    2  C   UNL     1       0.478   0.429   0.000  1.00  0.00     0.230 C 
HETATM    3  O   UNL     1      -0.057   1.831   0.000  1.00  0.00    -0.168 OA
ENDROOT
BRANCH   2   4
HETATM    4  C   UNL     1       1.959   0.192   0.000  1.00  0.00     0.131 A 
HETATM    5  N   UNL     1       3.021   1.251   0.000  1.00  0.00    -0.168 NA
HETATM    6  N   UNL     1       4.357   0.568   0.000  1.00  0.00    -0.041 NA
HETATM    7  S   UNL     1       4.120  -0.913   0.000  1.00  0.00    -0.017 SA
HETATM    8  C   UNL     1       2.638  -1.145   0.000  1.00  0.00     0.128 A 
ENDBRANCH   2   4
BRANCH   1   9
HETATM    9  C   UNL     1      -1.949  -0.497   0.000  1.00  0.00     0.170 A 
HETATM   10  N   UNL     1      -2.628   0.840   0.000  1.00  0.00    -0.152 NA
HETATM   11  N   UNL     1      -4.110   0.608   0.000  1.00  0.00    -0.039 NA
HETATM   12  S   UNL     1      -4.347  -0.873   0.000  1.00  0.00    -0.016 SA
HETATM   13  C   UNL     1      -3.012  -1.556   0.000  1.00  0.00     0.144 A 
ENDBRANCH   1   9
TORSDOF 2
