REMARK  2 active torsions:
REMARK  status: ('A' for Active; 'I' for Inactive)
REMARK    1  A    between atoms: C_7  and  C_11 
REMARK    2  A    between atoms: C_8  and  C_9 
REMARK       I    between atoms: C_11  and  N_13 
ROOT
HETATM    1  N   UNL     1      -2.586  -0.058   0.000  1.00  0.00    -0.164 NA
HETATM    2  N   UNL     1      -2.647  -1.556   0.000  1.00  0.00    -0.036 NA
HETATM    3  S   UNL     1      -1.241  -2.078   0.000  1.00  0.00     0.006 SA
HETATM    4  C   UNL     1      -1.141   0.347   0.000  1.00  0.00     0.151 A 
HETATM    5  C   UNL     1      -0.310  -0.902   0.000  1.00  0.00     0.082 A 
ENDROOT
BRANCH   5   6
HETATM    6  C   UNL     1       1.189  -0.963   0.000  1.00  0.00     0.096 A 
HETATM    7  N   UNL     1       2.119   0.213   0.000  1.00  0.00    -0.171 NA
HETATM    8  N   UNL     1       3.526  -0.308   0.000  1.00  0.00    -0.041 NA
HETATM    9  S   UNL     1       3.464  -1.807   0.000  1.00  0.00    -0.017 SA
HETATM   10  C   UNL     1       2.020  -2.212   0.000  1.00  0.00     0.125 A 
ENDBRANCH   5   6
BRANCH   4  11
HETATM   11  C   UNL     1      -0.620   1.753   0.000  1.00  0.00     0.254 C 
HETATM   12  O   UNL     1       0.859   2.005   0.000  1.00  0.00    -0.166 OA
HETATM   13  N   UNL     1      -1.577   2.908   0.000  1.00  0.00    -0.098 NA
HETATM   14  N   UNL     1      -3.056   2.657   0.000  1.00  0.00    -0.020 N 
ENDBRANCH   4  11
TORSDOF 2
