REMARK  1 active torsions:
REMARK  status: ('A' for Active; 'I' for Inactive)
REMARK    1  A    between atoms: N_1  and  C_7 
ROOT
HETATM    1  N   UNL     1       1.294  -7.514   0.000  1.00  0.00    -0.322 N 
HETATM    2  C   UNL     1       3.667  -8.885   0.000  1.00  0.00     0.044 A 
HETATM    3  C   UNL     1       2.175  -8.728   0.000  1.00  0.00     0.036 A 
HETATM    4  C   UNL     1       4.277 -10.255   0.000  1.00  0.00     0.007 A 
HETATM    5  C   UNL     1       3.396 -11.469   0.000  1.00  0.00     0.005 A 
HETATM    6  C   UNL     1       1.294  -9.941   0.000  1.00  0.00    -0.013 A 
HETATM    7  C   UNL     1       1.904 -11.312   0.000  1.00  0.00     0.027 A 
HETATM    8  C   UNL     1      -0.133  -9.478   0.000  1.00  0.00    -0.013 A 
HETATM    9  C   UNL     1      -1.432  -7.228   0.000  1.00  0.00     0.044 A 
HETATM   10  C   UNL     1      -0.133  -7.978   0.000  1.00  0.00     0.036 A 
HETATM   11  C   UNL     1      -2.731  -7.978   0.000  1.00  0.00     0.007 A 
HETATM   12  C   UNL     1      -2.731  -9.478   0.000  1.00  0.00     0.005 A 
HETATM   13  C   UNL     1      -1.432 -10.228   0.000  1.00  0.00     0.027 A 
ENDROOT
BRANCH   1  14
HETATM   14  C   UNL     1       1.757  -6.088   0.000  1.00  0.00     0.018 A 
HETATM   15  C   UNL     1       3.224  -5.776   0.000  1.00  0.00     0.040 A 
HETATM   16  C   UNL     1       3.688  -4.349   0.000  1.00  0.00     0.006 A 
HETATM   17  C   UNL     1       2.684  -3.235   0.000  1.00  0.00     0.001 A 
HETATM   18  C   UNL     1       1.217  -3.546   0.000  1.00  0.00     0.006 A 
HETATM   19  C   UNL     1       0.753  -4.973   0.000  1.00  0.00     0.040 A 
ENDBRANCH   1  14
TORSDOF 1
