REMARK  2 active torsions:
REMARK  status: ('A' for Active; 'I' for Inactive)
REMARK    1  A    between atoms: C_4  and  C_13 
REMARK    2  A    between atoms: C_9  and  C_13 
ROOT
HETATM    1  C   UNL     1       1.562  -5.705   0.000  1.00  0.00     0.000 A 
HETATM    2  C   UNL     1       0.263  -6.455   0.000  1.00  0.00     0.000 A 
HETATM    3  C   UNL     1       1.562  -4.205   0.000  1.00  0.00     0.004 A 
HETATM    4  C   UNL     1      -1.036  -5.705   0.000  1.00  0.00     0.000 A 
HETATM    5  C   UNL     1       0.263  -3.455   0.000  1.00  0.00     0.000 A 
HETATM    6  C   UNL     1      -1.036  -4.205   0.000  1.00  0.00     0.000 A 
HETATM    7  C   UNL     1      -2.335  -6.455   0.000  1.00  0.00     0.000 C 
ENDROOT
BRANCH   3   8
HETATM    8  C   UNL     1       2.861  -3.455   0.000  1.00  0.00     0.026 C 
BRANCH   8   9
HETATM    9  C   UNL     1       2.861  -1.956   0.000  1.00  0.00     0.007 A 
HETATM   10  C   UNL     1       4.075  -1.074   0.000  1.00  0.00     0.220 A 
HETATM   11  O   UNL     1       3.611   0.353   0.000  1.00  0.00    -0.309 OA
HETATM   12  O   UNL     1       5.501  -1.537   0.000  1.00  0.00    -0.164 OA
HETATM   13  C   UNL     1       2.111   0.353   0.000  1.00  0.00     0.155 A 
HETATM   14  C   UNL     1       1.647  -1.074   0.000  1.00  0.00     0.059 A 
ENDBRANCH   8   9
ENDBRANCH   3   8
TORSDOF 2
