REMARK  3 active torsions:
REMARK  status: ('A' for Active; 'I' for Inactive)
REMARK    1  A    between atoms: C_4  and  C_14 
REMARK    2  A    between atoms: C_7  and  C_14 
REMARK    3  A    between atoms: C_12  and  O_13 
ROOT
HETATM    1  C   UNL     1       3.333   5.672   0.000  1.00  0.00     0.004 A 
HETATM    2  C   UNL     1       4.083   4.373   0.000  1.00  0.00     0.003 A 
HETATM    3  C   UNL     1       4.083   6.971   0.000  1.00  0.00     0.003 A 
HETATM    4  C   UNL     1       5.583   6.971   0.000  1.00  0.00     0.030 A 
HETATM    5  C   UNL     1       5.583   4.373   0.000  1.00  0.00     0.030 A 
HETATM    6  C   UNL     1       6.333   5.672   0.000  1.00  0.00     0.116 A 
ENDROOT
BRANCH   1   7
HETATM    7  C   UNL     1       1.833   5.672   0.000  1.00  0.00     0.026 C 
BRANCH   7   8
HETATM    8  C   UNL     1       1.083   4.373   0.000  1.00  0.00     0.007 A 
HETATM    9  C   UNL     1      -0.409   4.216   0.000  1.00  0.00     0.059 A 
HETATM   10  C   UNL     1      -0.721   2.749   0.000  1.00  0.00     0.155 A 
HETATM   11  O   UNL     1       0.578   1.999   0.000  1.00  0.00    -0.309 OA
HETATM   12  C   UNL     1       1.693   3.002   0.000  1.00  0.00     0.220 A 
HETATM   13  O   UNL     1       3.160   2.691   0.000  1.00  0.00    -0.164 OA
ENDBRANCH   7   8
ENDBRANCH   1   7
BRANCH   6  14
HETATM   14  O   UNL     1       7.833   5.672   0.000  1.00  0.00    -0.354 OA
HETATM   15  C   UNL     1       8.583   6.971   0.000  1.00  0.00     0.174 C 
ENDBRANCH   6  14
TORSDOF 3
