REMARK  0 active torsions:
REMARK  status: ('A' for Active; 'I' for Inactive)
ROOT
HETATM    1  N   UNL     1       4.647   3.000   0.000  1.00  0.00    -0.299 N 
HETATM    2  N   UNL     1       5.946   5.250   0.000  1.00  0.00    -0.225 NA
HETATM    3  O   UNL     1       5.946   0.750   0.000  1.00  0.00    -0.175 OA
HETATM    4 CL   UNL     1       8.544   5.250   0.000  1.00  0.00    -0.066 Cl
HETATM    5  C   UNL     1       3.348   5.250   0.000  1.00  0.00     0.064 A 
HETATM    6  C   UNL     1       4.647   4.500   0.000  1.00  0.00     0.122 A 
HETATM    7  C   UNL     1       2.049   4.500   0.000  1.00  0.00     0.010 A 
HETATM    8  C   UNL     1       2.049   3.000   0.000  1.00  0.00     0.023 A 
HETATM    9  C   UNL     1       3.348   2.250   0.000  1.00  0.00     0.109 A 
HETATM   10  C   UNL     1       7.245   4.500   0.000  1.00  0.00     0.126 A 
HETATM   11  C   UNL     1       7.245   3.000   0.000  1.00  0.00     0.130 A 
HETATM   12  C   UNL     1       5.946   2.250   0.000  1.00  0.00     0.179 A 
HETATM   13  C   UNL     1       0.750   2.250   0.000  1.00  0.00     0.002 C 
ENDROOT
TORSDOF 0
