REMARK  2 active torsions:
REMARK  status: ('A' for Active; 'I' for Inactive)
REMARK    1  A    between atoms: C_1  and  C_13 
REMARK    2  A    between atoms: C_9  and  S_16 
ROOT
HETATM    1  C   UNL     1       4.786   1.462   0.000  1.00  0.00     0.176 A 
HETATM    2  C   UNL     1       4.734   2.961   0.000  1.00  0.00     0.037 A 
HETATM    3  C   UNL     1       6.144   3.474   0.000  1.00  0.00     0.007 A 
HETATM    4  C   UNL     1       6.228   1.049   0.000  1.00  0.00    -0.018 A 
HETATM    5  C   UNL     1       7.067   2.292   0.000  1.00  0.00     0.024 A 
HETATM    6  C   UNL     1       7.124  -0.015   0.000  1.00  0.00    -0.014 A 
HETATM    7  C   UNL     1       5.825  -0.765   0.000  1.00  0.00     0.050 A 
HETATM    8  C   UNL     1       8.423  -0.765   0.000  1.00  0.00     0.045 A 
HETATM    9  C   UNL     1       8.423  -2.265   0.000  1.00  0.00     0.136 A 
HETATM   10  C   UNL     1       5.825  -2.265   0.000  1.00  0.00     0.046 A 
HETATM   11  C   UNL     1       7.124  -3.015   0.000  1.00  0.00     0.025 A 
HETATM   12  N   UNL     1       4.526  -0.015   0.000  1.00  0.00    -0.265 NA
ENDROOT
BRANCH   9  13
HETATM   13  S   UNL     1       9.722  -3.015   0.000  1.00  0.00     0.281 S 
HETATM   14  O   UNL     1       8.972  -4.314   0.000  1.00  0.00    -0.201 OA
HETATM   15  O   UNL     1      10.472  -1.716   0.000  1.00  0.00    -0.201 OA
HETATM   16  N   UNL     1      11.021  -3.765   0.000  1.00  0.00    -0.047 N 
ENDBRANCH   9  13
BRANCH   1  17
HETATM   17  C   UNL     1       3.290   1.567   0.000  1.00  0.00     0.210 C 
HETATM   18  O   UNL     1       2.451   0.323   0.000  1.00  0.00    -0.646 OA
HETATM   19  O   UNL     1       2.632   2.915   0.000  1.00  0.00    -0.646 OA
ENDBRANCH   1  17
TORSDOF 2
