REMARK  7 active torsions:
REMARK  status: ('A' for Active; 'I' for Inactive)
REMARK    1  A    between atoms: C_9  and  O_17 
REMARK    2  A    between atoms: C_10  and  C_12 
REMARK    3  A    between atoms: C_12  and  O_13 
REMARK    4  A    between atoms: O_13  and  C_14 
REMARK    5  A    between atoms: O_17  and  C_18 
REMARK    6  A    between atoms: O_21  and  C_22 
REMARK    7  A    between atoms: O_26  and  C_27 
ROOT
HETATM    1  O   UNL     1      -7.061  -3.387   0.000  1.00  0.00    -0.327 OA
HETATM    2  C   UNL     1      -3.348  -4.391   0.000  1.00  0.00    -0.028 A 
HETATM    3  C   UNL     1      -2.049  -5.141   0.000  1.00  0.00     0.026 A 
HETATM    4  C   UNL     1      -4.647  -5.141   0.000  1.00  0.00    -0.002 A 
HETATM    5  C   UNL     1      -2.049  -6.641   0.000  1.00  0.00     0.009 A 
HETATM    6  C   UNL     1      -4.647  -6.641   0.000  1.00  0.00    -0.028 A 
HETATM    7  C   UNL     1      -5.946  -4.391   0.000  1.00  0.00     0.137 A 
HETATM    8  C   UNL     1      -6.556  -5.761   0.000  1.00  0.00     0.031 A 
HETATM    9  C   UNL     1      -8.048  -5.604   0.000  1.00  0.00     0.116 A 
HETATM   10  C   UNL     1      -8.360  -4.137   0.000  1.00  0.00     0.124 A 
HETATM   11  C   UNL     1      -3.348  -7.391   0.000  1.00  0.00     0.026 A 
HETATM   12  O   UNL     1      -5.806  -7.060   0.000  1.00  0.00     0.000 OA
HETATM   13  C   UNL     1      -5.064  -3.177   0.000  1.00  0.00     0.039 A 
HETATM   14  O   UNL     1      -3.573  -3.334   0.000  1.00  0.00     0.000 OA
HETATM   15  C   UNL     1      -0.750  -7.391   0.000  1.00  0.00     0.001 C 
ENDROOT
BRANCH  10  16
HETATM   16  C   UNL     1      -9.730  -3.527   0.000  1.00  0.00     0.198 C 
BRANCH  16  17
HETATM   17  O   UNL     1      -9.887  -2.035   0.000  1.00  0.00    -0.322 OA
BRANCH  17  18
HETATM   18  C   UNL     1     -11.257  -1.425   0.000  1.00  0.00     0.270 C 
HETATM   19  O   UNL     1     -11.414   0.067   0.000  1.00  0.00    -0.190 OA
HETATM   20  C   UNL     1     -12.471  -2.307   0.000  1.00  0.00     0.070 C 
ENDBRANCH  17  18
ENDBRANCH  16  17
ENDBRANCH  10  16
BRANCH   9  21
HETATM   21  O   UNL     1      -9.052  -6.719   0.000  1.00  0.00    -0.302 OA
BRANCH  21  22
HETATM   22  C   UNL     1     -10.519  -6.407   0.000  1.00  0.00     0.274 C 
HETATM   23  O   UNL     1     -11.523  -7.522   0.000  1.00  0.00    -0.190 OA
HETATM   24  C   UNL     1     -10.982  -4.980   0.000  1.00  0.00     0.070 C 
ENDBRANCH  21  22
ENDBRANCH   9  21
BRANCH  12  25
HETATM   25  C   UNL     1      -6.556  -8.359   0.000  1.00  0.00     0.130 C 
HETATM   26  O   UNL     1      -8.056  -8.359   0.000  1.00  0.00    -0.193 OA
HETATM   27  C   UNL     1      -5.806  -9.658   0.000  1.00  0.00     0.063 C 
ENDBRANCH  12  25
BRANCH  14  28
HETATM   28  C   UNL     1      -2.691  -2.120   0.000  1.00  0.00     0.130 C 
HETATM   29  O   UNL     1      -1.199  -2.277   0.000  1.00  0.00    -0.193 OA
HETATM   30  C   UNL     1      -3.301  -0.750   0.000  1.00  0.00     0.063 C 
ENDBRANCH  14  28
TORSDOF 7
