REMARK  6 active torsions:
REMARK  status: ('A' for Active; 'I' for Inactive)
REMARK    1  A    between atoms: C_3  and  O_20 
REMARK    2  A    between atoms: C_4  and  N_21 
REMARK    3  A    between atoms: C_9  and  O_17 
REMARK    4  A    between atoms: C_11  and  N_13 
REMARK       I    between atoms: N_13  and  C_14 
REMARK    5  A    between atoms: O_17  and  C_18 
REMARK    6  A    between atoms: C_18  and  O_20 
REMARK       I    between atoms: N_21  and  C_22 
ROOT
HETATM    1  C   UNL     1      -2.049   5.250   0.000  1.00  0.00     0.403 C 
HETATM    2  O   UNL     1      -0.750   6.000   0.000  1.00  0.00    -0.156 OA
ENDROOT
BRANCH   1   3
HETATM    3  O   UNL     1      -2.049   3.750   0.000  1.00  0.00    -0.308 OA
BRANCH   3   4
HETATM    4  C   UNL     1      -3.348   3.000   0.000  1.00  0.00     0.121 A 
HETATM    5  C   UNL     1      -4.647   3.750   0.000  1.00  0.00     0.036 A 
HETATM    6  C   UNL     1      -5.946   3.000   0.000  1.00  0.00     0.044 A 
HETATM    7  C   UNL     1      -5.946   1.500   0.000  1.00  0.00     0.039 A 
HETATM    8  C   UNL     1      -4.647   0.750   0.000  1.00  0.00     0.044 A 
HETATM    9  C   UNL     1      -3.348   1.500   0.000  1.00  0.00     0.036 A 
BRANCH   7  10
HETATM   10  N   UNL     1      -7.245   0.750   0.000  1.00  0.00    -0.232 NA
HETATM   11  C   UNL     1      -8.544   1.500   0.000  1.00  0.00     0.189 C 
HETATM   12  O   UNL     1      -9.843   0.750   0.000  1.00  0.00    -0.174 OA
HETATM   13  C   UNL     1      -8.544   3.000   0.000  1.00  0.00     0.083 C 
ENDBRANCH   7  10
ENDBRANCH   3   4
ENDBRANCH   1   3
BRANCH   1  14
HETATM   14  O   UNL     1      -3.348   6.000   0.000  1.00  0.00    -0.308 OA
BRANCH  14  15
HETATM   15  C   UNL     1      -3.348   7.500   0.000  1.00  0.00     0.121 A 
HETATM   16  C   UNL     1      -4.647   8.250   0.000  1.00  0.00     0.036 A 
HETATM   17  C   UNL     1      -4.647   9.750   0.000  1.00  0.00     0.044 A 
HETATM   18  C   UNL     1      -3.348  10.500   0.000  1.00  0.00     0.039 A 
HETATM   19  C   UNL     1      -2.049   9.750   0.000  1.00  0.00     0.044 A 
HETATM   20  C   UNL     1      -2.049   8.250   0.000  1.00  0.00     0.036 A 
BRANCH  18  21
HETATM   21  N   UNL     1      -3.348  12.000   0.000  1.00  0.00    -0.232 NA
HETATM   22  C   UNL     1      -4.647  12.750   0.000  1.00  0.00     0.189 C 
HETATM   23  O   UNL     1      -4.647  14.250   0.000  1.00  0.00    -0.174 OA
HETATM   24  C   UNL     1      -5.946  12.000   0.000  1.00  0.00     0.083 C 
ENDBRANCH  18  21
ENDBRANCH  14  15
ENDBRANCH   1  14
TORSDOF 6
