REMARK  1 active torsions:
REMARK  status: ('A' for Active; 'I' for Inactive)
REMARK    1  A    between atoms: O_20  and  C_21 
ROOT
HETATM    1  N   UNL     1      -7.622  -7.213   0.000  1.00  0.00    -0.360 N 
HETATM    2  H   UNL     1      -8.085  -8.640   0.000  1.00  0.00     0.165 HD
HETATM    3  N   UNL     1      -2.298  -4.500   0.000  1.00  0.00    -0.255 NA
HETATM    4  C   UNL     1      -4.896  -3.000   0.000  1.00  0.00     0.031 A 
HETATM    5  C   UNL     1      -3.597  -2.250   0.000  1.00  0.00     0.072 A 
HETATM    6  C   UNL     1      -2.298  -3.000   0.000  1.00  0.00     0.042 A 
HETATM    7  C   UNL     1      -4.896  -4.500   0.000  1.00  0.00     0.018 A 
HETATM    8  C   UNL     1      -3.597  -5.250   0.000  1.00  0.00     0.073 A 
HETATM    9  C   UNL     1      -6.195  -5.250   0.000  1.00  0.00     0.016 A 
HETATM   10  C   UNL     1      -3.597  -6.750   0.000  1.00  0.00    -0.020 A 
HETATM   11  C   UNL     1      -6.195  -6.750   0.000  1.00  0.00     0.038 A 
HETATM   12  C   UNL     1      -7.622  -4.787   0.000  1.00  0.00     0.031 A 
HETATM   13  C   UNL     1      -8.232  -3.416   0.000  1.00  0.00     0.081 A 
HETATM   14  C   UNL     1      -9.723  -3.259   0.000  1.00  0.00     0.052 A 
HETATM   15  C   UNL     1      -8.503  -6.000   0.000  1.00  0.00     0.035 A 
HETATM   16  C   UNL     1     -10.605  -4.473   0.000  1.00  0.00     0.013 A 
HETATM   17  C   UNL     1      -4.896  -7.500   0.000  1.00  0.00     0.067 A 
HETATM   18  C   UNL     1      -9.995  -5.843   0.000  1.00  0.00     0.044 A 
HETATM   19  C   UNL     1      -6.195  -2.250   0.000  1.00  0.00     0.195 A 
HETATM   20  O   UNL     1      -7.494  -3.000   0.000  1.00  0.00    -0.290 OA
HETATM   21  C   UNL     1      -2.298  -7.500   0.000  1.00  0.00     0.028 C 
HETATM   22  C   UNL     1      -0.999  -2.250   0.000  1.00  0.00     0.048 C 
ENDROOT
BRANCH  19  23
HETATM   23  O   UNL     1      -6.195  -0.750   0.000  1.00  0.00    -0.308 OA
HETATM   24  C   UNL     1      -7.494   0.000   0.000  1.00  0.00     0.184 C 
ENDBRANCH  19  23
TORSDOF 1
