REMARK  3 active torsions:
REMARK  status: ('A' for Active; 'I' for Inactive)
REMARK    1  A    between atoms: C4*_2  and  C5*_6 
REMARK    2  A    between atoms: C1*_5  and  N_13 
REMARK    3  A    between atoms: C_15  and  C_16 
ROOT
HETATM    1  N   UNL     1       5.591  11.321   0.000  1.00  0.00    -0.230 NA
HETATM    2  C   UNL     1       4.091  11.321   0.000  1.00  0.00     0.253 A 
HETATM    3  N   UNL     1       3.341  10.022   0.000  1.00  0.00    -0.227 NA
HETATM    4  C   UNL     1       4.091   8.723   0.000  1.00  0.00     0.145 A 
HETATM    5  C   UNL     1       5.591   8.723   0.000  1.00  0.00     0.064 A 
HETATM    6  C   UNL     1       6.341  10.022   0.000  1.00  0.00     0.151 A 
HETATM    7  N   UNL     1       3.628   7.296   0.000  1.00  0.00    -0.288 N 
HETATM    8  C   UNL     1       4.841   6.415   0.000  1.00  0.00     0.138 A 
HETATM    9  C   UNL     1       6.055   7.296   0.000  1.00  0.00     0.029 A 
HETATM   10  N   UNL     1       7.841  10.022   0.000  1.00  0.00    -0.080 NA
ENDROOT
BRANCH   7  11
HETATM   11  C1* UNL     1       2.201   6.833   0.000  1.00  0.00     0.193 A 
HETATM   12  O4* UNL     1       0.988   7.715   0.000  1.00  0.00    -0.288 OA
HETATM   13  C4* UNL     1      -0.226   6.833   0.000  1.00  0.00     0.140 A 
HETATM   14  C3* UNL     1       0.238   5.406   0.000  1.00  0.00     0.181 A 
HETATM   15  C2* UNL     1       1.738   5.406   0.000  1.00  0.00     0.197 A 
HETATM   16  O3* UNL     1      -0.644   4.193   0.000  1.00  0.00    -0.186 OA
HETATM   17  O2* UNL     1       2.619   4.193   0.000  1.00  0.00    -0.184 OA
BRANCH  13  18
HETATM   18  C5* UNL     1      -1.652   7.296   0.000  1.00  0.00     0.235 C 
HETATM   19  O5* UNL     1      -2.767   6.293   0.000  1.00  0.00    -0.213 OA
ENDBRANCH  13  18
ENDBRANCH   7  11
BRANCH   9  20
HETATM   20  C   UNL     1       7.481   6.833   0.000  1.00  0.00     0.123 C 
HETATM   21  S   UNL     1       8.596   7.837   0.000  1.00  0.00    -0.063 SA
HETATM   22  N   UNL     1       7.793   5.366   0.000  1.00  0.00    -0.089 NA
ENDBRANCH   9  20
TORSDOF 3
