REMARK  2 active torsions:
REMARK  status: ('A' for Active; 'I' for Inactive)
REMARK    1  A    between atoms: C_10  and  C_11 
REMARK    2  A    between atoms: C_10  and  C_13 
ROOT
HETATM    1  O   UNL     1      -4.295  -0.646   0.000  1.00  0.00    -0.339 OA
HETATM    2  N   UNL     1      -4.354  -3.072   0.000  1.00  0.00    -0.372 N 
HETATM    3  H   UNL     1      -4.852  -4.487   0.000  1.00  0.00     0.157 HD
HETATM    4  C   UNL     1      -6.058  -0.603   0.000  1.00  0.00     0.049 A 
HETATM    5  C   UNL     1      -5.206  -1.838   0.000  1.00  0.00     0.153 A 
HETATM    6  C   UNL     1      -7.496  -1.032   0.000  1.00  0.00     0.004 A 
HETATM    7  C   UNL     1      -7.532  -2.531   0.000  1.00  0.00     0.004 A 
HETATM    8  C   UNL     1      -6.117  -3.029   0.000  1.00  0.00     0.049 A 
HETATM    9  C   UNL     1      -2.881  -1.144   0.000  1.00  0.00     0.169 A 
HETATM   10  C   UNL     1      -2.917  -2.643   0.000  1.00  0.00     0.148 A 
ENDROOT
BRANCH  10  11
HETATM   11  C   UNL     1      -2.641  -4.118   0.000  1.00  0.00     0.207 C 
HETATM   12  O   UNL     1      -1.226  -4.616   0.000  1.00  0.00    -0.218 OA
ENDBRANCH  10  11
BRANCH  10  13
HETATM   13  C   UNL     1      -1.422  -2.523   0.000  1.00  0.00     0.207 C 
HETATM   14  O   UNL     1      -0.779  -1.168   0.000  1.00  0.00    -0.218 OA
ENDBRANCH  10  13
TORSDOF 2
