REMARK  2 active torsions:
REMARK  status: ('A' for Active; 'I' for Inactive)
REMARK    1  A    between atoms: C_7  and  C_18 
REMARK    2  A    between atoms: C_11  and  C_18 
ROOT
HETATM    1  N   UNL     1      -3.132   8.260   0.000  1.00  0.00    -0.333 N 
HETATM    2  C   UNL     1      -5.857   8.546   0.000  1.00  0.00     0.043 A 
HETATM    3  C   UNL     1      -7.156   7.796   0.000  1.00  0.00     0.007 A 
HETATM    4  C   UNL     1      -4.558   7.796   0.000  1.00  0.00     0.033 A 
HETATM    5  C   UNL     1      -4.558   6.296   0.000  1.00  0.00    -0.007 A 
HETATM    6  C   UNL     1      -7.156   6.296   0.000  1.00  0.00     0.005 A 
HETATM    7  C   UNL     1      -3.132   5.833   0.000  1.00  0.00     0.034 A 
HETATM    8  C   UNL     1      -2.250   7.046   0.000  1.00  0.00     0.039 A 
HETATM    9  C   UNL     1      -5.857   5.546   0.000  1.00  0.00     0.028 A 
HETATM   10  C   UNL     1      -2.668   9.686   0.000  1.00  0.00     0.130 C 
HETATM   11  C   UNL     1      -0.750   7.046   0.000  1.00  0.00     0.050 C 
ENDROOT
BRANCH   7  12
HETATM   12  C   UNL     1      -2.668   4.406   0.000  1.00  0.00     0.124 C 
HETATM   13  O   UNL     1      -1.201   4.094   0.000  1.00  0.00    -0.191 OA
BRANCH  12  14
HETATM   14  C   UNL     1      -3.672   3.291   0.000  1.00  0.00    -0.019 A 
HETATM   15  C   UNL     1      -3.208   1.865   0.000  1.00  0.00     0.024 A 
HETATM   16  C   UNL     1      -4.212   0.750   0.000  1.00  0.00     0.004 A 
HETATM   17  C   UNL     1      -5.679   1.062   0.000  1.00  0.00     0.001 A 
HETATM   18  C   UNL     1      -6.143   2.488   0.000  1.00  0.00     0.004 A 
HETATM   19  C   UNL     1      -5.139   3.603   0.000  1.00  0.00     0.024 A 
ENDBRANCH  12  14
ENDBRANCH   7  12
TORSDOF 2
