REMARK  2 active torsions:
REMARK  status: ('A' for Active; 'I' for Inactive)
REMARK    1  A    between atoms: C_4  and  N_10 
REMARK    2  A    between atoms: N_10  and  O_11 
ROOT
HETATM    1  O   UNL     1      -8.544  -3.750   0.000  1.00  0.00    -0.191 OA
HETATM    2  C   UNL     1      -5.946  -0.750   0.000  1.00  0.00     0.072 A 
HETATM    3  C   UNL     1      -7.245  -1.500   0.000  1.00  0.00    -0.013 A 
HETATM    4  C   UNL     1      -4.647  -1.500   0.000  1.00  0.00     0.085 A 
HETATM    5  C   UNL     1      -4.647  -3.000   0.000  1.00  0.00    -0.008 A 
HETATM    6  C   UNL     1      -7.245  -3.000   0.000  1.00  0.00     0.119 A 
HETATM    7  C   UNL     1      -5.946  -3.750   0.000  1.00  0.00     0.000 A 
HETATM    8  C   UNL     1      -8.544  -0.750   0.000  1.00  0.00     0.029 C 
HETATM    9  C   UNL     1      -5.946  -5.250   0.000  1.00  0.00     0.033 C 
HETATM   10  C   UNL     1      -3.348  -3.750   0.000  1.00  0.00     0.032 C 
ENDROOT
BRANCH   4  11
HETATM   11  N   UNL     1      -3.348  -0.750   0.000  1.00  0.00    -0.136 NA
BRANCH  11  12
HETATM   12  O   UNL     1      -2.049  -1.500   0.000  1.00  0.00    -0.234 OA
HETATM   13  C   UNL     1      -0.750  -0.750   0.000  1.00  0.00     0.211 C 
ENDBRANCH  11  12
ENDBRANCH   4  11
TORSDOF 2
