REMARK  3 active torsions:
REMARK  status: ('A' for Active; 'I' for Inactive)
REMARK    1  A    between atoms: N_2  and  C_6 
REMARK    2  A    between atoms: N_2  and  N_3 
REMARK    3  A    between atoms: N_3  and  C_12 
ROOT
HETATM    1  N   UNL     1      -0.119   2.201   0.000  1.00  0.00    -0.150 NA
ENDROOT
BRANCH   1   2
HETATM    2  C   UNL     1      -0.613   3.617   0.000  1.00  0.00     0.112 A 
HETATM    3  C   UNL     1       0.367   4.753   0.000  1.00  0.00     0.167 A 
HETATM    4  N   UNL     1      -0.126   6.170   0.000  1.00  0.00    -0.221 NA
HETATM    5  N   UNL     1       1.841   4.472   0.000  1.00  0.00    -0.078 NA
HETATM    6  C   UNL     1      -1.600   6.450   0.000  1.00  0.00     0.130 A 
HETATM    7  C   UNL     1      -2.580   5.315   0.000  1.00  0.00     0.067 A 
HETATM    8  N   UNL     1      -2.093   7.867   0.000  1.00  0.00    -0.085 NA
HETATM    9  C   UNL     1      -2.086   3.898   0.000  1.00  0.00     0.058 A 
ENDBRANCH   1   2
BRANCH   1  10
HETATM   10  N   UNL     1       1.354   1.920   0.000  1.00  0.00    -0.152 NA
BRANCH  10  11
HETATM   11  C   UNL     1       1.848   0.503   0.000  1.00  0.00     0.087 A 
HETATM   12  C   UNL     1       0.868  -0.632   0.000  1.00  0.00     0.048 A 
HETATM   13  C   UNL     1       1.361  -2.049   0.000  1.00  0.00     0.007 A 
HETATM   14  C   UNL     1       2.834  -2.330   0.000  1.00  0.00     0.006 A 
HETATM   15  C   UNL     1       3.814  -1.194   0.000  1.00  0.00     0.039 A 
HETATM   16  C   UNL     1       3.321   0.223   0.000  1.00  0.00     0.051 A 
HETATM   17 CL   UNL     1       4.301   1.358   0.000  1.00  0.00    -0.086 Cl
ENDBRANCH  10  11
ENDBRANCH   1  10
TORSDOF 3
