REMARK  2 active torsions:
REMARK  status: ('A' for Active; 'I' for Inactive)
REMARK    1  A    between atoms: C_16  and  C_21 
REMARK    2  A    between atoms: C_23  and  O_24 
ROOT
HETATM    1  N   UNL     1      -4.765  -8.588   0.000  1.00  0.00    -0.336 N 
HETATM    2  C   UNL     1      -4.195 -11.269   0.000  1.00  0.00     0.040 A 
HETATM    3  C   UNL     1      -3.080 -12.273   0.000  1.00  0.00     0.010 A 
HETATM    4  C   UNL     1      -3.883  -9.802   0.000  1.00  0.00     0.021 A 
HETATM    5  C   UNL     1      -2.456  -9.338   0.000  1.00  0.00     0.072 A 
HETATM    6  C   UNL     1      -1.653 -11.809   0.000  1.00  0.00     0.022 A 
HETATM    7  C   UNL     1      -2.456  -7.838   0.000  1.00  0.00    -0.017 A 
HETATM    8  C   UNL     1      -3.883  -7.375   0.000  1.00  0.00     0.030 A 
HETATM    9  C   UNL     1      -1.342 -10.342   0.000  1.00  0.00    -0.043 A 
HETATM   10  C   UNL     1      -6.265  -8.588   0.000  1.00  0.00     0.130 C 
HETATM   11  C   UNL     1      -4.346  -5.948   0.000  1.00  0.00     0.049 C 
HETATM   12  O   UNL     1      -0.971  -9.540   0.000  1.00  0.00     0.000 OA
ENDROOT
BRANCH   7  13
HETATM   13  C   UNL     1      -1.243  -6.957   0.000  1.00  0.00     0.052 A 
HETATM   14  C   UNL     1      -0.029  -6.075   0.000  1.00  0.00    -0.017 A 
HETATM   15  C   UNL     1       1.397  -6.538   0.000  1.00  0.00     0.072 A 
HETATM   16  C   UNL     1      -0.029  -4.575   0.000  1.00  0.00     0.030 A 
HETATM   17  C   UNL     1       2.279  -5.325   0.000  1.00  0.00     0.021 A 
HETATM   18  C   UNL     1       2.007  -7.909   0.000  1.00  0.00    -0.043 A 
HETATM   19  O   UNL     1       1.131  -8.013   0.000  1.00  0.00     0.000 OA
HETATM   20  N   UNL     1       1.397  -4.111   0.000  1.00  0.00    -0.336 N 
HETATM   21  C   UNL     1       3.771  -5.482   0.000  1.00  0.00     0.040 A 
HETATM   22  C   UNL     1       1.861  -2.685   0.000  1.00  0.00     0.130 C 
HETATM   23  C   UNL     1       4.381  -6.852   0.000  1.00  0.00     0.010 A 
HETATM   24  C   UNL     1       3.499  -8.065   0.000  1.00  0.00     0.022 A 
HETATM   25  C   UNL     1      -0.361  -8.170   0.000  1.00  0.00    -0.023 A 
HETATM   26  C   UNL     1      -1.243  -3.693   0.000  1.00  0.00     0.049 C 
HETATM   27  C   UNL     1      -2.124  -5.743   0.000  1.00  0.00     0.013 C 
ENDBRANCH   7  13
TORSDOF 2
