REMARK  2 active torsions:
REMARK  status: ('A' for Active; 'I' for Inactive)
REMARK    1  A    between atoms: C_6  and  C_7 
REMARK    2  A    between atoms: C_12  and  C_13 
ROOT
HETATM    1  N   UNL     1      -7.945   2.654   0.000  1.00  0.00    -0.140 NA
HETATM    2  S   UNL     1      -5.728   3.641   0.000  1.00  0.00    -0.043 SA
HETATM    3  N   UNL     1      -6.941   1.539   0.000  1.00  0.00    -0.140 NA
HETATM    4  C   UNL     1      -5.571   2.150   0.000  1.00  0.00     0.147 A 
HETATM    5  C   UNL     1      -7.195   3.953   0.000  1.00  0.00     0.147 A 
ENDROOT
BRANCH   4   6
HETATM    6  C   UNL     1      -4.272   1.399   0.000  1.00  0.00     0.079 A 
HETATM    7  N   UNL     1      -2.973   2.150   0.000  1.00  0.00    -0.273 NA
HETATM    8  C   UNL     1      -1.674   1.399   0.000  1.00  0.00     0.125 A 
HETATM    9  C   UNL     1      -1.674  -0.101   0.000  1.00  0.00     0.027 A 
HETATM   10  C   UNL     1      -2.973  -0.851   0.000  1.00  0.00     0.008 A 
HETATM   11  C   UNL     1      -4.272  -0.101   0.000  1.00  0.00     0.048 A 
ENDBRANCH   4   6
BRANCH   5  12
HETATM   12  C   UNL     1      -7.805   5.324   0.000  1.00  0.00     0.079 A 
HETATM   13  N   UNL     1      -6.924   6.537   0.000  1.00  0.00    -0.273 NA
HETATM   14  C   UNL     1      -7.534   7.907   0.000  1.00  0.00     0.125 A 
HETATM   15  C   UNL     1      -9.025   8.064   0.000  1.00  0.00     0.027 A 
HETATM   16  C   UNL     1      -9.907   6.851   0.000  1.00  0.00     0.008 A 
HETATM   17  C   UNL     1      -9.297   5.480   0.000  1.00  0.00     0.048 A 
ENDBRANCH   5  12
TORSDOF 2
