REMARK  1 active torsions:
REMARK  status: ('A' for Active; 'I' for Inactive)
REMARK    1  A    between atoms: N_2  and  C_5 
ROOT
HETATM    1  N   UNL     1       2.049  -5.250   0.000  1.00  0.00    -0.149 NA
HETATM    2  N   UNL     1       2.049  -6.750   0.000  1.00  0.00    -0.137 N 
HETATM    3  C   UNL     1       0.750  -3.000   0.000  1.00  0.00     0.050 A 
HETATM    4  C   UNL     1       0.750  -4.500   0.000  1.00  0.00     0.081 A 
HETATM    5  C   UNL     1      -0.549  -2.250   0.000  1.00  0.00     0.040 A 
HETATM    6  C   UNL     1      -0.549  -5.250   0.000  1.00  0.00     0.047 A 
HETATM    7  C   UNL     1      -1.848  -3.000   0.000  1.00  0.00     0.157 A 
HETATM    8  C   UNL     1      -1.848  -4.500   0.000  1.00  0.00     0.065 A 
HETATM    9  O   UNL     1      -3.147  -2.250   0.000  1.00  0.00    -0.223 OA
HETATM   10  C   UNL     1      -0.549  -6.750   0.000  1.00  0.00     0.252 A 
HETATM   11  O   UNL     1       0.750  -7.500   0.000  1.00  0.00    -0.185 OA
HETATM   12  O   UNL     1      -1.848  -7.500   0.000  1.00  0.00    -0.161 OA
ENDROOT
BRANCH   2  13
HETATM   13  C   UNL     1       3.348  -7.500   0.000  1.00  0.00     0.063 A 
HETATM   14  C   UNL     1       4.647  -6.750   0.000  1.00  0.00     0.044 A 
HETATM   15  C   UNL     1       5.946  -7.500   0.000  1.00  0.00     0.006 A 
HETATM   16  C   UNL     1       5.946  -9.000   0.000  1.00  0.00     0.001 A 
HETATM   17  C   UNL     1       4.647  -9.750   0.000  1.00  0.00     0.006 A 
HETATM   18  C   UNL     1       3.348  -9.000   0.000  1.00  0.00     0.044 A 
ENDBRANCH   2  13
TORSDOF 1
