REMARK  0 active torsions:
REMARK  status: ('A' for Active; 'I' for Inactive)
ROOT
HETATM    1  C   UNL     1       7.520   2.525   0.000  1.00  0.00     0.229 A 
HETATM    2  C   UNL     1       4.922   2.525   0.000  1.00  0.00     0.087 A 
HETATM    3  C   UNL     1       6.221   1.774   0.000  1.00  0.00     0.038 A 
HETATM    4  C   UNL     1       3.623   1.774   0.000  1.00  0.00     0.140 A 
HETATM    5  C   UNL     1       8.819   0.275   0.000  1.00  0.00     0.109 A 
HETATM    6  C   UNL     1       6.221   0.275   0.000  1.00  0.00     0.052 A 
HETATM    7  C   UNL     1       3.623   0.275   0.000  1.00  0.00     0.178 A 
HETATM    8  C   UNL     1      10.118  -0.475   0.000  1.00  0.00     0.112 A 
HETATM    9  C   UNL     1       7.520  -0.475   0.000  1.00  0.00     0.123 A 
HETATM   10  C   UNL     1       4.922  -0.475   0.000  1.00  0.00     0.160 A 
HETATM   11  C   UNL     1      10.118  -1.976   0.000  1.00  0.00     0.164 A 
HETATM   12  C   UNL     1       8.819  -2.725   0.000  1.00  0.00     0.255 A 
HETATM   13  O   UNL     1       7.520  -1.976   0.000  1.00  0.00    -0.280 OA
HETATM   14  O   UNL     1       7.520   4.024   0.000  1.00  0.00    -0.163 OA
HETATM   15  O   UNL     1       8.819   1.774   0.000  1.00  0.00    -0.286 OA
HETATM   16  O   UNL     1       8.819  -4.226   0.000  1.00  0.00    -0.161 OA
HETATM   17  O   UNL     1       2.324   2.525   0.000  1.00  0.00    -0.192 OA
HETATM   18  O   UNL     1       2.324  -0.475   0.000  1.00  0.00    -0.186 OA
HETATM   19  O   UNL     1       4.922  -1.976   0.000  1.00  0.00    -0.188 OA
HETATM   20  O   UNL     1      11.417  -2.725   0.000  1.00  0.00    -0.190 OA
ENDROOT
TORSDOF 0
