REMARK  2 active torsions:
REMARK  status: ('A' for Active; 'I' for Inactive)
REMARK    1  A    between atoms: C_10  and  N_17 
REMARK    2  A    between atoms: C_20  and  C_23 
ROOT
HETATM    1  O   UNL     1      -9.764  -2.842   0.000  1.00  0.00    -0.190 OA
HETATM    2  N   UNL     1      -3.977  -3.982   0.000  1.00  0.00    -0.219 NA
HETATM    3 BR   UNL     1      -3.977  -6.982   0.000  1.00  0.00    -0.052 Br
HETATM    4  C   UNL     1      -9.300  -4.269   0.000  1.00  0.00     0.129 A 
HETATM    5  C   UNL     1      -7.874  -4.732   0.000  1.00  0.00     0.048 A 
HETATM    6  C   UNL     1      -6.575  -3.982   0.000  1.00  0.00     0.144 A 
HETATM    7  C   UNL     1      -5.276  -4.732   0.000  1.00  0.00     0.110 A 
HETATM    8  C   UNL     1     -10.182  -5.482   0.000  1.00  0.00     0.005 A 
HETATM    9  C   UNL     1     -11.674  -5.639   0.000  1.00  0.00     0.074 A 
HETATM   10  C   UNL     1     -12.284  -7.009   0.000  1.00  0.00     0.087 A 
HETATM   11  C   UNL     1      -5.276  -6.232   0.000  1.00  0.00     0.036 A 
HETATM   12  C   UNL     1      -7.874  -6.232   0.000  1.00  0.00    -0.017 A 
HETATM   13  C   UNL     1      -9.300  -6.696   0.000  1.00  0.00    -0.027 A 
HETATM   14  C   UNL     1     -11.402  -8.223   0.000  1.00  0.00     0.051 A 
HETATM   15  C   UNL     1      -6.575  -6.982   0.000  1.00  0.00     0.061 A 
HETATM   16  C   UNL     1      -9.911  -8.066   0.000  1.00  0.00     0.032 A 
HETATM   17  C   UNL     1      -3.977  -2.482   0.000  1.00  0.00     0.261 A 
HETATM   18  N   UNL     1      -5.276  -1.732   0.000  1.00  0.00    -0.103 NA
HETATM   19  O   UNL     1      -6.575  -2.482   0.000  1.00  0.00    -0.208 OA
ENDROOT
BRANCH  17  20
HETATM   20  C   UNL     1      -2.678  -1.732   0.000  1.00  0.00     0.455 C 
HETATM   21  F   UNL     1      -1.928  -3.031   0.000  1.00  0.00    -0.163 F 
HETATM   22  F   UNL     1      -1.379  -0.982   0.000  1.00  0.00    -0.163 F 
HETATM   23  F   UNL     1      -3.428  -0.433   0.000  1.00  0.00    -0.163 F 
ENDBRANCH  17  20
BRANCH  10  24
HETATM   24  N   UNL     1     -13.776  -7.166   0.000  1.00  0.00    -0.122 N 
HETATM   25  O   UNL     1     -14.386  -8.537   0.000  1.00  0.00    -0.532 OA
HETATM   26  O   UNL     1     -14.658  -5.953   0.000  1.00  0.00    -0.532 OA
ENDBRANCH  10  24
TORSDOF 2
