REMARK  11 active torsions:
REMARK  status: ('A' for Active; 'I' for Inactive)
REMARK    1  A    between atoms: O_1  and  C_21 
REMARK    2  A    between atoms: O_1  and  C_23 
REMARK    3  A    between atoms: N_2  and  C_27 
REMARK    4  A    between atoms: O_3  and  C_6 
REMARK    5  A    between atoms: O_3  and  C_11 
REMARK    6  A    between atoms: C_7  and  N_31 
REMARK    7  A    between atoms: C_16  and  C_19 
REMARK    8  A    between atoms: C_19  and  C_20 
REMARK    9  A    between atoms: C_20  and  C_21 
REMARK   10  A    between atoms: C_23  and  C_27 
REMARK   11  A    between atoms: C_24  and  C_28 
ROOT
HETATM    1  N   UNL     1      -7.779  10.409   0.000  1.00  0.00    -0.322 N 
HETATM    2  C   UNL     1      -7.889   6.145   0.000  1.00  0.00     0.081 A 
HETATM    3  C   UNL     1      -9.189   5.395   0.000  1.00  0.00     0.122 A 
HETATM    4  C   UNL     1      -7.889   7.645   0.000  1.00  0.00     0.076 A 
HETATM    5  C   UNL     1     -10.488   6.145   0.000  1.00  0.00     0.035 A 
HETATM    6  C   UNL     1      -9.189   8.395   0.000  1.00  0.00    -0.003 A 
HETATM    7  C   UNL     1     -10.488   7.645   0.000  1.00  0.00     0.028 A 
HETATM    8  C   UNL     1      -6.630   9.444   0.000  1.00  0.00     0.181 A 
HETATM    9  O   UNL     1      -6.890   7.967   0.000  1.00  0.00    -0.294 OA
HETATM   10  C   UNL     1      -9.189   9.895   0.000  1.00  0.00     0.128 A 
ENDROOT
BRANCH   1  11
HETATM   11  C   UNL     1      -7.519  11.886   0.000  1.00  0.00     0.136 C 
BRANCH  11  12
HETATM   12  C   UNL     1      -8.818  12.636   0.000  1.00  0.00     0.169 C 
BRANCH  12  13
HETATM   13  O   UNL     1      -8.818  14.136   0.000  1.00  0.00    -0.327 OA
BRANCH  13  14
HETATM   14  C   UNL     1      -7.519  14.886   0.000  1.00  0.00     0.270 C 
HETATM   15  O   UNL     1      -6.220  14.136   0.000  1.00  0.00    -0.190 OA
BRANCH  14  16
HETATM   16  C   UNL     1      -7.519  16.386   0.000  1.00  0.00     0.076 C 
BRANCH  16  17
HETATM   17  C   UNL     1      -6.109  16.899   0.000  1.00  0.00     0.103 C 
BRANCH  17  18
HETATM   18  C   UNL     1      -5.849  18.376   0.000  1.00  0.00     0.185 C 
HETATM   19  O   UNL     1      -6.998  19.340   0.000  1.00  0.00    -0.647 OA
HETATM   20  O   UNL     1      -4.439  18.889   0.000  1.00  0.00    -0.647 OA
ENDBRANCH  17  18
ENDBRANCH  16  17
ENDBRANCH  14  16
ENDBRANCH  13  14
ENDBRANCH  12  13
ENDBRANCH  11  12
ENDBRANCH   1  11
BRANCH   8  21
HETATM   21  C   UNL     1      -5.220   9.957   0.000  1.00  0.00     0.154 C 
HETATM   22 CL   UNL     1      -4.960  11.434   0.000  1.00  0.00    -0.066 Cl
HETATM   23 CL   UNL     1      -4.071   8.993   0.000  1.00  0.00    -0.066 Cl
ENDBRANCH   8  21
BRANCH   3  24
HETATM   24  O   UNL     1      -9.189   3.895   0.000  1.00  0.00    -0.359 OA
BRANCH  24  25
HETATM   25  C   UNL     1      -7.889   3.145   0.000  1.00  0.00     0.116 A 
HETATM   26  C   UNL     1      -6.590   3.895   0.000  1.00  0.00     0.036 A 
HETATM   27  C   UNL     1      -5.292   3.145   0.000  1.00  0.00     0.048 A 
HETATM   28  C   UNL     1      -5.292   1.645   0.000  1.00  0.00     0.082 A 
HETATM   29  C   UNL     1      -6.590   0.895   0.000  1.00  0.00     0.048 A 
HETATM   30  C   UNL     1      -7.889   1.645   0.000  1.00  0.00     0.036 A 
BRANCH  28  31
HETATM   31  N   UNL     1      -3.992   0.895   0.000  1.00  0.00    -0.122 N 
HETATM   32  O   UNL     1      -2.693   1.645   0.000  1.00  0.00    -0.532 OA
HETATM   33  O   UNL     1      -3.992  -0.605   0.000  1.00  0.00    -0.532 OA
ENDBRANCH  28  31
ENDBRANCH  24  25
ENDBRANCH   3  24
TORSDOF 11
