REMARK  7 active torsions:
REMARK  status: ('A' for Active; 'I' for Inactive)
REMARK    1  A    between atoms: C_3  and  C_15 
REMARK    2  A    between atoms: C_5  and  C_12 
REMARK    3  A    between atoms: CA_6  and  C_7 
REMARK    4  A    between atoms: C_9  and  O_11 
REMARK    5  A    between atoms: O_11  and  C_12 
REMARK    6  A    between atoms: C_15  and  O_17 
REMARK    7  A    between atoms: O_17  and  C_18 
ROOT
HETATM    1  N   UNL     1      -5.159  -3.965   0.000  1.00  0.00    -0.351 N 
HETATM    2  H   UNL     1      -5.159  -2.465   0.000  1.00  0.00     0.166 HD
HETATM    3  C   UNL     1      -3.945  -4.846   0.000  1.00  0.00     0.102 A 
HETATM    4  C   UNL     1      -4.409  -6.273   0.000  1.00  0.00     0.003 A 
HETATM    5  C   UNL     1      -5.909  -6.273   0.000  1.00  0.00     0.060 A 
HETATM    6  CA  UNL     1      -6.372  -4.846   0.000  1.00  0.00     0.071 A 
HETATM    7  C   UNL     1      -3.527  -7.487   0.000  1.00  0.00     0.033 C 
ENDROOT
BRANCH   3   8
HETATM    8  C   UNL     1      -2.519  -4.383   0.000  1.00  0.00     0.244 C 
HETATM    9  O   UNL     1      -1.404  -5.387   0.000  1.00  0.00    -0.162 OA
BRANCH   8  10
HETATM   10  O   UNL     1      -2.207  -2.916   0.000  1.00  0.00    -0.308 OA
BRANCH  10  11
HETATM   11  C   UNL     1      -0.780  -2.452   0.000  1.00  0.00     0.151 C 
HETATM   12  C   UNL     1       0.334  -3.456   0.000  1.00  0.00     0.035 C 
ENDBRANCH  10  11
ENDBRANCH   8  10
ENDBRANCH   3   8
BRANCH   6  13
HETATM   13  C   UNL     1      -7.799  -4.383   0.000  1.00  0.00     0.226 C 
HETATM   14  O   UNL     1      -8.914  -5.387   0.000  1.00  0.00    -0.214 OA
ENDBRANCH   6  13
BRANCH   5  15
HETATM   15  C   UNL     1      -6.791  -7.487   0.000  1.00  0.00     0.229 C 
HETATM   16  O   UNL     1      -6.181  -8.857   0.000  1.00  0.00    -0.163 OA
BRANCH  15  17
HETATM   17  O   UNL     1      -8.282  -7.330   0.000  1.00  0.00    -0.309 OA
BRANCH  17  18
HETATM   18  C   UNL     1      -9.164  -8.543   0.000  1.00  0.00     0.151 C 
HETATM   19  C   UNL     1     -10.656  -8.387   0.000  1.00  0.00     0.035 C 
ENDBRANCH  17  18
ENDBRANCH  15  17
ENDBRANCH   5  15
TORSDOF 7
