REMARK  5 active torsions:
REMARK  status: ('A' for Active; 'I' for Inactive)
REMARK    1  A    between atoms: C_6  and  C_24 
REMARK    2  A    between atoms: C_7  and  C_24 
REMARK    3  A    between atoms: C_9  and  C_26 
REMARK    4  A    between atoms: C_26  and  C_27 
REMARK    5  A    between atoms: C_27  and  N_28 
ROOT
HETATM    1  C   UNL     2       7.380 -11.159   0.000  1.00  0.00     0.073 A 
HETATM    2  C   UNL     2       8.806 -10.695   0.000  1.00  0.00     0.301 A 
HETATM    3  O   UNL     2       9.118  -9.228   0.000  1.00  0.00    -0.187 OA
HETATM    4  O   UNL     2       9.921 -11.699   0.000  1.00  0.00    -0.187 OA
HETATM    5  C   UNL     2       7.068 -12.626   0.000  1.00  0.00     0.073 A 
HETATM    6  C   UNL     2       8.183 -13.630   0.000  1.00  0.00     0.301 A 
HETATM    7  O   UNL     2       7.871 -15.097   0.000  1.00  0.00    -0.187 OA
HETATM    8  O   UNL     2       9.609 -13.166   0.000  1.00  0.00    -0.187 OA
ENDROOT
TORSDOF 5
