REMARK  2 active torsions:
REMARK  status: ('A' for Active; 'I' for Inactive)
REMARK    1  A    between atoms: C_12  and  C_25 
REMARK    2  A    between atoms: C_15  and  C_25 
ROOT
HETATM    1 CL   UNL     1     -12.217  -5.250   0.000  1.00  0.00    -0.010 Cl
HETATM    2  N   UNL     1      -7.021  -5.250   0.000  1.00  0.00    -0.364 N 
HETATM    3  H   UNL     1      -7.021  -6.750   0.000  1.00  0.00     0.161 HD
HETATM    4  N   UNL     1      -5.722  -3.000   0.000  1.00  0.00    -0.294 N 
HETATM    5  H   UNL     1      -4.423  -2.250   0.000  1.00  0.00     0.177 HD
HETATM    6  C   UNL     1      -9.619  -2.250   0.000  1.00  0.00     0.056 A 
HETATM    7  C   UNL     1     -10.918  -3.000   0.000  1.00  0.00     0.080 A 
HETATM    8  C   UNL     1      -8.320  -3.000   0.000  1.00  0.00     0.125 A 
HETATM    9  C   UNL     1      -8.320  -4.500   0.000  1.00  0.00     0.098 A 
HETATM   10  C   UNL     1     -10.918  -4.500   0.000  1.00  0.00     0.058 A 
HETATM   11  C   UNL     1      -9.619  -5.250   0.000  1.00  0.00     0.062 A 
HETATM   12  C   UNL     1      -5.722  -4.500   0.000  1.00  0.00     0.098 A 
HETATM   13  N   UNL     1     -13.516  -1.500   0.000  1.00  0.00    -0.056 N 
HETATM   14  S   UNL     1     -12.217  -2.250   0.000  1.00  0.00     0.231 S 
HETATM   15  O   UNL     1     -12.967  -3.549   0.000  1.00  0.00    -0.179 OA
HETATM   16  O   UNL     1     -11.467  -0.951   0.000  1.00  0.00    -0.212 OA
HETATM   17  S   UNL     1      -7.021  -2.250   0.000  1.00  0.00     0.130 S 
HETATM   18  O   UNL     1      -7.021  -3.750   0.000  1.00  0.00     0.000 OA
HETATM   19  O   UNL     1      -7.021  -0.750   0.000  1.00  0.00    -0.234 OA
ENDROOT
BRANCH  12  20
HETATM   20  C   UNL     1      -4.423  -5.250   0.000  1.00  0.00     0.062 C 
BRANCH  20  21
HETATM   21  C   UNL     1      -3.124  -4.500   0.000  1.00  0.00     0.007 A 
HETATM   22  C   UNL     1      -2.967  -3.008   0.000  1.00  0.00     0.000 A 
HETATM   23  C   UNL     1      -1.500  -2.696   0.000  1.00  0.00     0.000 A 
HETATM   24  C   UNL     1      -0.750  -3.995   0.000  1.00  0.00     0.000 A 
HETATM   25  C   UNL     1      -1.754  -5.110   0.000  1.00  0.00     0.000 A 
ENDBRANCH  20  21
ENDBRANCH  12  20
TORSDOF 2
