REMARK  5 active torsions:
REMARK  status: ('A' for Active; 'I' for Inactive)
REMARK       I    between atoms: C_2  and  N_4 
REMARK    1  A    between atoms: N_4  and  C_5 
REMARK    2  A    between atoms: C_5  and  C_7 
REMARK    3  A    between atoms: C_7  and  C_8 
REMARK    4  A    between atoms: C_9  and  C_10 
REMARK    5  A    between atoms: C_12  and  C_13 
ROOT
HETATM    1  C   UNL     1      -2.725  -5.657   0.000  1.00  0.00     0.063 C 
ENDROOT
BRANCH   1   2
HETATM    2  C   UNL     1      -3.475  -6.956   0.000  1.00  0.00     0.044 C 
HETATM    3  C   UNL     1      -2.725  -8.255   0.000  1.00  0.00     0.048 C 
BRANCH   2   4
HETATM    4  N   UNL     1      -4.975  -6.956   0.000  1.00  0.00    -0.216 NA
HETATM    5  C   UNL     1      -5.725  -8.255   0.000  1.00  0.00     0.286 C 
HETATM    6  N   UNL     1      -4.975  -9.554   0.000  1.00  0.00    -0.052 NA
HETATM    7  O   UNL     1      -7.225  -8.255   0.000  1.00  0.00    -0.153 OA
ENDBRANCH   2   4
ENDBRANCH   1   2
BRANCH   1   8
HETATM    8  C   UNL     1      -1.225  -5.657   0.000  1.00  0.00    -0.039 A 
HETATM    9  C   UNL     1       0.455  -6.111   0.000  1.00  0.00     0.043 A 
HETATM   10  C   UNL     1       0.233  -5.263   0.000  1.00  0.00    -0.034 A 
BRANCH   9  11
HETATM   11  C   UNL     1       2.134  -4.438   0.000  1.00  0.00     0.030 A 
HETATM   12  C   UNL     1       1.687  -2.756   0.000  1.00  0.00     0.026 A 
HETATM   13  C   UNL     1       1.296  -4.205   0.000  1.00  0.00    -0.048 A 
ENDBRANCH   9  11
ENDBRANCH   1   8
TORSDOF 5
