REMARK  0 active torsions:
REMARK  status: ('A' for Active; 'I' for Inactive)
ROOT
HETATM    1  N   UNL     1     -10.263   2.776   0.000  1.00  0.00    -0.229 N 
HETATM    2  N   UNL     1     -10.263   1.276   0.000  1.00  0.00    -0.242 N 
HETATM    3  O   UNL     1      -8.964   5.026   0.000  1.00  0.00    -0.281 OA
HETATM    4  S   UNL     1      -8.964  -0.974   0.000  1.00  0.00    -0.087 SA
HETATM    5  N   UNL     1      -7.665   2.776   0.000  1.00  0.00    -0.252 N 
HETATM    6  O   UNL     1      -6.366   0.526   0.000  1.00  0.00    -0.293 OA
HETATM    7  C   UNL     1      -6.366   8.026   0.000  1.00  0.00     0.007 A 
HETATM    8  C   UNL     1      -7.665   7.276   0.000  1.00  0.00     0.051 A 
HETATM    9  C   UNL     1      -5.067   7.276   0.000  1.00  0.00     0.005 A 
HETATM   10  C   UNL     1      -5.067   5.776   0.000  1.00  0.00     0.029 A 
HETATM   11  C   UNL     1      -7.665   5.776   0.000  1.00  0.00     0.078 A 
HETATM   12  C   UNL     1      -6.366   5.026   0.000  1.00  0.00     0.013 A 
HETATM   13  C   UNL     1      -8.964   3.526   0.000  1.00  0.00     0.257 A 
HETATM   14  C   UNL     1      -3.768   3.526   0.000  1.00  0.00     0.029 A 
HETATM   15  C   UNL     1      -2.469   2.776   0.000  1.00  0.00     0.005 A 
HETATM   16  C   UNL     1      -5.067   2.776   0.000  1.00  0.00     0.013 A 
HETATM   17  C   UNL     1      -2.469   1.276   0.000  1.00  0.00     0.007 A 
HETATM   18  C   UNL     1      -5.067   1.276   0.000  1.00  0.00     0.077 A 
HETATM   19  C   UNL     1      -3.768   0.526   0.000  1.00  0.00     0.051 A 
HETATM   20  C   UNL     1      -7.665   1.276   0.000  1.00  0.00     0.194 A 
HETATM   21  C   UNL     1      -8.964   0.526   0.000  1.00  0.00     0.146 A 
HETATM   22  C   UNL     1     -11.562  -0.974   0.000  1.00  0.00    -0.019 A 
HETATM   23  C   UNL     1     -12.861  -1.724   0.000  1.00  0.00     0.024 A 
HETATM   24  C   UNL     1     -11.562   0.526   0.000  1.00  0.00     0.052 A 
HETATM   25  C   UNL     1     -12.861   1.276   0.000  1.00  0.00     0.045 A 
HETATM   26  C   UNL     1     -14.160  -0.974   0.000  1.00  0.00     0.005 A 
HETATM   27  C   UNL     1     -14.160   0.526   0.000  1.00  0.00     0.007 A 
HETATM   28  C   UNL     1     -11.562   3.526   0.000  1.00  0.00     0.156 C 
HETATM   29  C   UNL     1     -10.263  -1.724   0.000  1.00  0.00     0.087 A 
HETATM   30  C   UNL     1      -6.366   3.526   0.000  1.00  0.00     0.064 A 
ENDROOT
TORSDOF 0
