REMARK  3 active torsions:
REMARK  status: ('A' for Active; 'I' for Inactive)
REMARK    1  A    between atoms: N_2  and  C_5 
REMARK    2  A    between atoms: N_2  and  N_3 
REMARK    3  A    between atoms: N_3  and  C_10 
ROOT
HETATM    1  N   UNL     1      -5.946   5.250   0.000  1.00  0.00    -0.150 NA
ENDROOT
BRANCH   1   2
HETATM    2  C   UNL     1      -7.245   6.000   0.000  1.00  0.00     0.112 A 
HETATM    3  C   UNL     1      -8.544   5.250   0.000  1.00  0.00     0.167 A 
HETATM    4  N   UNL     1      -9.843   6.000   0.000  1.00  0.00    -0.221 NA
HETATM    5  N   UNL     1      -8.544   3.750   0.000  1.00  0.00    -0.078 NA
HETATM    6  C   UNL     1      -9.843   7.500   0.000  1.00  0.00     0.130 A 
HETATM    7  C   UNL     1      -8.544   8.250   0.000  1.00  0.00     0.067 A 
HETATM    8  N   UNL     1     -11.142   8.250   0.000  1.00  0.00    -0.085 NA
HETATM    9  C   UNL     1      -7.245   7.500   0.000  1.00  0.00     0.058 A 
ENDBRANCH   1   2
BRANCH   1  10
HETATM   10  N   UNL     1      -5.946   3.750   0.000  1.00  0.00    -0.157 NA
BRANCH  10  11
HETATM   11  C   UNL     1      -4.647   3.000   0.000  1.00  0.00     0.059 A 
HETATM   12  C   UNL     1      -3.348   3.750   0.000  1.00  0.00     0.046 A 
HETATM   13  C   UNL     1      -2.049   3.000   0.000  1.00  0.00     0.039 A 
HETATM   14  C   UNL     1      -2.049   1.500   0.000  1.00  0.00     0.153 A 
HETATM   15  C   UNL     1      -3.348   0.750   0.000  1.00  0.00     0.039 A 
HETATM   16  O   UNL     1      -0.750   0.750   0.000  1.00  0.00    -0.223 OA
HETATM   17  C   UNL     1      -4.647   1.500   0.000  1.00  0.00     0.046 A 
ENDBRANCH  10  11
ENDBRANCH   1  10
TORSDOF 3
