REMARK  6 active torsions:
REMARK  status: ('A' for Active; 'I' for Inactive)
REMARK    1  A    between atoms: C_1  and  C_4 
REMARK    2  A    between atoms: C_4  and  C_5 
REMARK    3  A    between atoms: C_5  and  C_6 
REMARK    4  A    between atoms: C_6  and  C_7 
REMARK    5  A    between atoms: C_7  and  C_9 
REMARK    6  A    between atoms: C_9  and  C_10 
ROOT
HETATM    1  C   UNL     1      -5.524   2.873   0.000  1.00  0.00     0.000 C 
ENDROOT
BRANCH   1   2
HETATM    2  C   UNL     1      -4.774   1.574   0.000  1.00  0.00     0.000 C 
BRANCH   2   3
HETATM    3  C   UNL     1      -3.275   1.574   0.000  1.00  0.00     0.000 C 
BRANCH   3   4
HETATM    4  C   UNL     1      -2.525   0.275   0.000  1.00  0.00     0.000 C 
HETATM    5  C   UNL     1      -3.275  -1.024   0.000  1.00  0.00     0.000 C 
HETATM    6  C   UNL     1      -1.024   0.275   0.000  1.00  0.00     0.000 C 
ENDBRANCH   3   4
ENDBRANCH   2   3
ENDBRANCH   1   2
BRANCH   1   7
HETATM    7  C   UNL     1      -4.774   4.172   0.000  1.00  0.00     0.005 C 
HETATM    8  C   UNL     1      -3.275   4.172   0.000  1.00  0.00     0.000 C 
BRANCH   7   9
HETATM    9  C   UNL     1      -5.524   5.471   0.000  1.00  0.00     0.074 C 
BRANCH   9  10
HETATM   10  C   UNL     1      -7.024   5.471   0.000  1.00  0.00     0.451 C 
HETATM   11  O   UNL     1      -7.774   6.770   0.000  1.00  0.00    -0.182 OA
HETATM   12  N   UNL     1      -7.774   4.172   0.000  1.00  0.00     0.652 N 
ENDBRANCH   9  10
ENDBRANCH   7   9
ENDBRANCH   1   7
TORSDOF 6
