REMARK  0 active torsions:
REMARK  status: ('A' for Active; 'I' for Inactive)
ROOT
HETATM    1 AS   UNL     1      -4.082  -2.875   0.000  1.00  0.00     0.000 As
HETATM    2  O   UNL     1      -3.472  -1.505   0.000  1.00  0.00     0.000 OA
HETATM    3  C   UNL     1      -1.356  -2.588   0.000  1.00  0.00     0.026 A 
HETATM    4  C   UNL     1      -0.057  -3.338   0.000  1.00  0.00     0.005 A 
HETATM    5  C   UNL     1      -2.655  -3.338   0.000  1.00  0.00    -0.030 A 
HETATM    6  C   UNL     1      -0.057  -4.838   0.000  1.00  0.00     0.005 A 
HETATM    7  C   UNL     1      -2.655  -4.838   0.000  1.00  0.00    -0.030 A 
HETATM    8  C   UNL     1      -1.356  -5.588   0.000  1.00  0.00     0.026 A 
HETATM    9  C   UNL     1      -4.082  -5.302   0.000  1.00  0.00    -0.030 A 
HETATM   10  C   UNL     1      -6.455  -4.245   0.000  1.00  0.00     0.026 A 
HETATM   11  C   UNL     1      -7.065  -5.616   0.000  1.00  0.00     0.005 A 
HETATM   12  C   UNL     1      -4.963  -4.088   0.000  1.00  0.00    -0.030 A 
HETATM   13  C   UNL     1      -6.184  -6.829   0.000  1.00  0.00     0.005 A 
HETATM   14  C   UNL     1      -4.692  -6.672   0.000  1.00  0.00     0.026 A 
HETATM   15  O   UNL     1      -5.381  -2.125   0.000  1.00  0.00     0.000 OA
ENDROOT
TORSDOF 0
