REMARK  0 active torsions:
REMARK  status: ('A' for Active; 'I' for Inactive)
ROOT
HETATM    1  S   UNL     1      -8.280  -3.299   0.000  1.00  0.00    -0.067 SA
HETATM    2  O   UNL     1      -5.356  -2.853   0.000  1.00  0.00    -0.285 OA
HETATM    3  H   UNL     1      -2.758  -1.353   0.000  1.00  0.00     0.171 HD
HETATM    4  N   UNL     1      -2.758  -2.853   0.000  1.00  0.00    -0.300 N 
HETATM    5  O   UNL     1      -2.758  -7.353   0.000  1.00  0.00    -0.171 OA
HETATM    6  N   UNL     1      -1.459  -5.103   0.000  1.00  0.00    -0.298 N 
HETATM    7  H   UNL     1      -0.160  -5.853   0.000  1.00  0.00     0.171 HD
HETATM    8  O   UNL     1      -0.160  -2.853   0.000  1.00  0.00    -0.151 OA
HETATM    9  C   UNL     1     -10.497  -4.910   0.000  1.00  0.00     0.033 A 
HETATM   10  C   UNL     1     -10.960  -6.337   0.000  1.00  0.00     0.005 A 
HETATM   11  C   UNL     1      -9.030  -4.598   0.000  1.00  0.00     0.005 A 
HETATM   12  C   UNL     1      -8.026  -5.713   0.000  1.00  0.00    -0.021 A 
HETATM   13  C   UNL     1      -9.957  -7.452   0.000  1.00  0.00     0.005 A 
HETATM   14  C   UNL     1      -8.489  -7.140   0.000  1.00  0.00     0.026 A 
HETATM   15  C   UNL     1      -6.655  -5.103   0.000  1.00  0.00     0.008 A 
HETATM   16  C   UNL     1      -6.812  -3.611   0.000  1.00  0.00     0.127 A 
HETATM   17  C   UNL     1      -1.459  -3.603   0.000  1.00  0.00     0.259 A 
HETATM   18  C   UNL     1      -4.057  -3.603   0.000  1.00  0.00     0.164 A 
HETATM   19  C   UNL     1      -4.057  -5.103   0.000  1.00  0.00     0.064 A 
HETATM   20  C   UNL     1      -2.758  -5.853   0.000  1.00  0.00     0.193 A 
HETATM   21  C   UNL     1      -5.356  -5.853   0.000  1.00  0.00     0.062 A 
ENDROOT
TORSDOF 0
