REMARK  2 active torsions:
REMARK  status: ('A' for Active; 'I' for Inactive)
REMARK    1  A    between atoms: C_6  and  C_7 
REMARK    2  A    between atoms: C_9  and  C_17 
ROOT
HETATM    1  C   UNL     1       0.425  -7.271   0.000  1.00  0.00    -0.008 A 
HETATM    2  C   UNL     1      -1.002  -7.735   0.000  1.00  0.00    -0.026 A 
HETATM    3  C   UNL     1       1.307  -8.485   0.000  1.00  0.00     0.051 A 
HETATM    4  C   UNL     1      -2.301  -6.985   0.000  1.00  0.00     0.026 A 
HETATM    5  C   UNL     1      -3.600  -7.735   0.000  1.00  0.00     0.005 A 
HETATM    6  C   UNL     1       0.425  -9.698   0.000  1.00  0.00     0.069 A 
HETATM    7  C   UNL     1      -1.002  -9.235   0.000  1.00  0.00    -0.013 A 
HETATM    8  C   UNL     1      -3.600  -9.235   0.000  1.00  0.00     0.005 A 
HETATM    9  C   UNL     1      -2.301  -9.985   0.000  1.00  0.00     0.027 A 
HETATM   10  N   UNL     1       0.889 -11.125   0.000  1.00  0.00    -0.101 NA
ENDROOT
BRANCH   1  11
HETATM   11  C   UNL     1       0.889  -5.845   0.000  1.00  0.00    -0.044 A 
HETATM   12  C   UNL     1       2.356  -5.533   0.000  1.00  0.00     0.022 A 
HETATM   13  C   UNL     1       2.819  -4.106   0.000  1.00  0.00     0.004 A 
HETATM   14  C   UNL     1       1.816  -2.991   0.000  1.00  0.00     0.001 A 
HETATM   15  C   UNL     1       0.348  -3.303   0.000  1.00  0.00     0.004 A 
HETATM   16  C   UNL     1      -0.115  -4.730   0.000  1.00  0.00     0.022 A 
ENDBRANCH   1  11
BRANCH   3  17
HETATM   17  C   UNL     1       2.807  -8.485   0.000  1.00  0.00     0.201 C 
HETATM   18  O   UNL     1       3.557  -9.784   0.000  1.00  0.00    -0.175 OA
HETATM   19  N   UNL     1       3.557  -7.186   0.000  1.00  0.00    -0.071 NA
ENDBRANCH   3  17
TORSDOF 2
