REMARK  1 active torsions:
REMARK  status: ('A' for Active; 'I' for Inactive)
REMARK    1  A    between atoms: C_7  and  C_13 
ROOT
HETATM    1  C   UNL     1      -6.607  -1.890   0.000  1.00  0.00     0.014 A 
HETATM    2  C   UNL     1      -7.906  -2.640   0.000  1.00  0.00     0.001 A 
HETATM    3  C   UNL     1      -5.308  -2.640   0.000  1.00  0.00     0.087 A 
HETATM    4  C   UNL     1      -5.308  -4.140   0.000  1.00  0.00     0.032 A 
HETATM    5  C   UNL     1      -7.906  -4.140   0.000  1.00  0.00     0.000 A 
HETATM    6  C   UNL     1      -3.882  -4.604   0.000  1.00  0.00    -0.032 A 
HETATM    7  C   UNL     1      -3.000  -3.390   0.000  1.00  0.00     0.087 A 
HETATM    8  C   UNL     1      -6.607  -4.890   0.000  1.00  0.00     0.005 A 
HETATM    9  S   UNL     1      -3.882  -2.177   0.000  1.00  0.00     0.067 S 
HETATM   10  O   UNL     1      -4.345  -3.603   0.000  1.00  0.00     0.000 OA
HETATM   11  O   UNL     1      -3.418  -0.750   0.000  1.00  0.00    -0.252 OA
HETATM   12  C   UNL     1      -3.418  -6.030   0.000  1.00  0.00     0.027 C 
ENDROOT
BRANCH   7  13
HETATM   13  C   UNL     1      -1.500  -3.390   0.000  1.00  0.00     0.208 C 
HETATM   14  O   UNL     1      -0.750  -4.689   0.000  1.00  0.00    -0.174 OA
HETATM   15  N   UNL     1      -0.750  -2.091   0.000  1.00  0.00    -0.070 NA
ENDBRANCH   7  13
TORSDOF 1
