REMARK  4 active torsions:
REMARK  status: ('A' for Active; 'I' for Inactive)
REMARK    1  A    between atoms: O_2  and  C_9 
REMARK    2  A    between atoms: O_2  and  C_15 
REMARK    3  A    between atoms: N_3  and  C_16 
REMARK    4  A    between atoms: C_15  and  C_16 
ROOT
HETATM    1  N   UNL     1       0.638   3.206   0.000  1.00  0.00    -0.258 NA
HETATM    2  C   UNL     1      -1.956   3.354   0.000  1.00  0.00     0.045 A 
HETATM    3  C   UNL     1      -0.701   2.531   0.000  1.00  0.00     0.056 A 
HETATM    4  C   UNL     1      -3.295   2.679   0.000  1.00  0.00     0.007 A 
HETATM    5  C   UNL     1      -0.786   1.034   0.000  1.00  0.00     0.010 A 
HETATM    6  C   UNL     1      -3.380   1.181   0.000  1.00  0.00     0.005 A 
HETATM    7  C   UNL     1       0.468   0.211   0.000  1.00  0.00     0.074 A 
HETATM    8  C   UNL     1       1.893   2.384   0.000  1.00  0.00     0.043 A 
HETATM    9  C   UNL     1       1.808   0.886   0.000  1.00  0.00     0.092 A 
HETATM   10  C   UNL     1      -2.126   0.359   0.000  1.00  0.00     0.029 A 
HETATM   11  C   UNL     1       3.232   3.059   0.000  1.00  0.00     0.048 C 
ENDROOT
BRANCH   7  12
HETATM   12  O   UNL     1       0.383  -1.286   0.000  1.00  0.00    -0.333 OA
BRANCH  12  13
HETATM   13  C   UNL     1       1.761  -1.879   0.000  1.00  0.00     0.172 C 
BRANCH  13  14
HETATM   14  C   UNL     1       1.937  -3.368   0.000  1.00  0.00     0.130 C 
BRANCH  14  15
HETATM   15  N   UNL     1       0.735  -4.266   0.000  1.00  0.00    -0.363 N 
HETATM   16  C   UNL     1      -0.754  -4.442   0.000  1.00  0.00     0.121 A 
HETATM   17  C   UNL     1       0.143  -5.644   0.000  1.00  0.00     0.121 A 
ENDBRANCH  14  15
ENDBRANCH  13  14
ENDBRANCH  12  13
ENDBRANCH   7  12
TORSDOF 4
