REMARK  4 active torsions:
REMARK  status: ('A' for Active; 'I' for Inactive)
REMARK    1  A    between atoms: N_2  and  C_16 
REMARK    2  A    between atoms: C_11  and  O_14 
REMARK    3  A    between atoms: O_14  and  C_15 
REMARK    4  A    between atoms: C_15  and  C_16 
ROOT
HETATM    1  N   UNL     1      -5.297  -5.424   0.000  1.00  0.00    -0.231 NA
HETATM    2  C   UNL     1      -7.895  -5.424   0.000  1.00  0.00     0.045 A 
HETATM    3  C   UNL     1      -9.194  -6.174   0.000  1.00  0.00     0.007 A 
HETATM    4  C   UNL     1      -6.596  -6.174   0.000  1.00  0.00     0.053 A 
HETATM    5  C   UNL     1      -6.596  -7.674   0.000  1.00  0.00    -0.030 A 
HETATM    6  C   UNL     1      -9.194  -7.674   0.000  1.00  0.00     0.005 A 
HETATM    7  C   UNL     1      -5.297  -8.424   0.000  1.00  0.00     0.032 A 
HETATM    8  C   UNL     1      -3.998  -6.174   0.000  1.00  0.00     0.154 A 
HETATM    9  C   UNL     1      -3.998  -7.674   0.000  1.00  0.00     0.076 A 
HETATM   10  C   UNL     1      -7.895  -8.424   0.000  1.00  0.00     0.023 A 
ENDROOT
BRANCH   8  11
HETATM   11  O   UNL     1      -2.699  -5.424   0.000  1.00  0.00    -0.316 OA
BRANCH  11  12
HETATM   12  C   UNL     1      -2.699  -3.924   0.000  1.00  0.00     0.174 C 
BRANCH  12  13
HETATM   13  C   UNL     1      -1.399  -3.174   0.000  1.00  0.00     0.130 C 
BRANCH  13  14
HETATM   14  N   UNL     1      -0.101  -3.924   0.000  1.00  0.00    -0.363 N 
HETATM   15  C   UNL     1       1.399  -3.924   0.000  1.00  0.00     0.121 A 
HETATM   16  C   UNL     1       0.649  -5.223   0.000  1.00  0.00     0.121 A 
ENDBRANCH  13  14
ENDBRANCH  12  13
ENDBRANCH  11  12
ENDBRANCH   8  11
TORSDOF 4
