REMARK  0 active torsions:
REMARK  status: ('A' for Active; 'I' for Inactive)
ROOT
HETATM    1  N   UNL     1      -5.946  -0.750   0.000  1.00  0.00    -0.232 NA
HETATM    2  O   UNL     1      -3.348  -5.250   0.000  1.00  0.00    -0.169 OA
HETATM    3  O   UNL     1      -0.750  -0.750   0.000  1.00  0.00    -0.147 OA
HETATM    4  C   UNL     1      -8.544  -0.750   0.000  1.00  0.00     0.067 A 
HETATM    5  C   UNL     1      -9.843  -1.500   0.000  1.00  0.00    -0.045 A 
HETATM    6  C   UNL     1      -7.245  -1.500   0.000  1.00  0.00     0.058 A 
HETATM    7  C   UNL     1      -7.245  -3.000   0.000  1.00  0.00    -0.022 A 
HETATM    8  C   UNL     1      -9.843  -3.000   0.000  1.00  0.00    -0.047 A 
HETATM    9  C   UNL     1      -5.946  -3.750   0.000  1.00  0.00     0.057 A 
HETATM   10  C   UNL     1      -4.647  -1.500   0.000  1.00  0.00     0.166 A 
HETATM   11  C   UNL     1      -4.647  -3.000   0.000  1.00  0.00     0.062 A 
HETATM   12  C   UNL     1      -3.348  -3.750   0.000  1.00  0.00     0.215 A 
HETATM   13  C   UNL     1      -8.544  -3.750   0.000  1.00  0.00     0.045 A 
HETATM   14  C   UNL     1      -2.049  -1.500   0.000  1.00  0.00     0.304 A 
HETATM   15  C   UNL     1     -11.142  -3.750   0.000  1.00  0.00     0.026 C 
HETATM   16  N   UNL     1      -3.348  -0.750   0.000  1.00  0.00    -0.184 NA
HETATM   17  N   UNL     1      -2.049  -3.000   0.000  1.00  0.00    -0.177 NA
HETATM   18  C   UNL     1     -11.142  -0.750   0.000  1.00  0.00     0.026 C 
ENDROOT
TORSDOF 0
