REMARK  3 active torsions:
REMARK  status: ('A' for Active; 'I' for Inactive)
REMARK    1  A    between atoms: N_2  and  C_5 
REMARK    2  A    between atoms: C_17  and  O_22 
REMARK    3  A    between atoms: O_22  and  C_23 
ROOT
HETATM    1  O   UNL     1      -4.105  -3.236   0.000  1.00  0.00    -0.358 OA
HETATM    2  C   UNL     1      -2.806  -5.486   0.000  1.00  0.00     0.074 A 
HETATM    3  C   UNL     1      -1.379  -5.022   0.000  1.00  0.00     0.091 A 
HETATM    4  C   UNL     1      -0.498  -6.236   0.000  1.00  0.00     0.019 A 
HETATM    5  C   UNL     1      -4.105  -4.736   0.000  1.00  0.00     0.122 A 
HETATM    6  C   UNL     1      -5.404  -5.486   0.000  1.00  0.00     0.031 A 
HETATM    7  C   UNL     1      -1.379  -7.450   0.000  1.00  0.00     0.061 A 
HETATM    8  C   UNL     1      -2.806  -6.986   0.000  1.00  0.00    -0.042 A 
HETATM    9  C   UNL     1      -5.404  -6.986   0.000  1.00  0.00     0.017 A 
HETATM   10  C   UNL     1      -4.105  -7.736   0.000  1.00  0.00    -0.052 A 
HETATM   11  C   UNL     1      -6.703  -7.736   0.000  1.00  0.00     0.004 A 
HETATM   12  C   UNL     1      -8.002  -6.986   0.000  1.00  0.00     0.003 A 
HETATM   13  C   UNL     1      -9.301  -7.736   0.000  1.00  0.00     0.030 A 
HETATM   14  C   UNL     1      -4.105  -9.236   0.000  1.00  0.00     0.021 A 
HETATM   15  C   UNL     1      -6.703  -9.236   0.000  1.00  0.00     0.003 A 
HETATM   16  C   UNL     1      -9.301  -9.236   0.000  1.00  0.00     0.118 A 
HETATM   17  C   UNL     1      -5.404  -9.986   0.000  1.00  0.00     0.004 A 
HETATM   18  C   UNL     1      -8.002  -9.986   0.000  1.00  0.00     0.030 A 
HETATM   19  C   UNL     1      -6.703  -6.236   0.000  1.00  0.00     0.006 A 
HETATM   20  C   UNL     1      -2.649  -3.994   0.000  1.00  0.00     0.131 A 
HETATM   21  C   UNL     1      -0.916  -3.596   0.000  1.00  0.00     0.157 A 
HETATM   22  O   UNL     1      -1.920  -2.481   0.000  1.00  0.00    -0.223 OA
HETATM   23  C   UNL     1       0.551  -3.284   0.000  1.00  0.00     0.036 C 
ENDROOT
BRANCH  16  24
HETATM   24  O   UNL     1     -10.600  -9.986   0.000  1.00  0.00    -0.332 OA
BRANCH  24  25
HETATM   25  C   UNL     1     -11.899  -9.236   0.000  1.00  0.00     0.269 C 
HETATM   26  O   UNL     1     -13.198  -9.986   0.000  1.00  0.00    -0.190 OA
HETATM   27  C   UNL     1     -11.899  -7.736   0.000  1.00  0.00     0.070 C 
ENDBRANCH  24  25
ENDBRANCH  16  24
BRANCH   4  28
HETATM   28  N   UNL     1       1.002  -6.236   0.000  1.00  0.00    -0.351 N 
HETATM   29  C   UNL     1       2.301  -5.486   0.000  1.00  0.00     0.125 A 
HETATM   30  C   UNL     1       2.301  -6.986   0.000  1.00  0.00     0.125 A 
ENDBRANCH   4  28
TORSDOF 3
