REMARK  2 active torsions:
REMARK  status: ('A' for Active; 'I' for Inactive)
REMARK    1  A    between atoms: C_5  and  C_8 
REMARK    2  A    between atoms: C_8  and  N_9 
REMARK       I    between atoms: N_9  and  C_10 
ROOT
HETATM    1  N   UNL     1       0.588   4.544   0.000  1.00  0.00    -0.115 NA
HETATM    2  N   UNL     1       1.052   3.118   0.000  1.00  0.00    -0.253 N 
HETATM    3  O   UNL     1       3.433   1.904   0.000  1.00  0.00    -0.170 OA
HETATM    4  C   UNL     1       1.802   5.426   0.000  1.00  0.00     0.142 A 
HETATM    5  C   UNL     1       3.015   4.544   0.000  1.00  0.00     0.043 A 
HETATM    6  C   UNL     1       2.552   3.118   0.000  1.00  0.00     0.201 A 
HETATM    7  C   UNL     1       0.170   1.904   0.000  1.00  0.00     0.149 C 
ENDROOT
BRANCH   5   8
HETATM    8  C   UNL     1       4.442   5.008   0.000  1.00  0.00     0.156 C 
BRANCH   8   9
HETATM    9  N   UNL     1       5.556   4.004   0.000  1.00  0.00    -0.229 NA
HETATM   10  C   UNL     1       6.983   4.468   0.000  1.00  0.00     0.283 C 
HETATM   11  O   UNL     1       8.098   3.464   0.000  1.00  0.00    -0.153 OA
HETATM   12  N   UNL     1       7.295   5.935   0.000  1.00  0.00    -0.052 NA
ENDBRANCH   8   9
ENDBRANCH   5   8
TORSDOF 2
