REMARK  3 active torsions:
REMARK  status: ('A' for Active; 'I' for Inactive)
REMARK    1  A    between atoms: C_2  and  C_8 
REMARK    2  A    between atoms: C_8  and  O_11 
REMARK    3  A    between atoms: O_11  and  C_14 
ROOT
HETATM    1  C   UNL     1      -4.172  -4.774   0.000  1.00  0.00     0.121 A 
HETATM    2  C   UNL     1      -2.873  -5.524   0.000  1.00  0.00     0.112 A 
HETATM    3  C   UNL     1      -5.471  -5.524   0.000  1.00  0.00     0.093 A 
HETATM    4  C   UNL     1      -2.873  -7.024   0.000  1.00  0.00     0.196 A 
HETATM    5  C   UNL     1      -5.471  -7.024   0.000  1.00  0.00     0.020 A 
HETATM    6  N   UNL     1      -4.172  -7.774   0.000  1.00  0.00    -0.339 N 
HETATM    7  H   UNL     1      -4.172  -9.274   0.000  1.00  0.00     0.167 HD
HETATM    8  O   UNL     1      -1.574  -7.774   0.000  1.00  0.00    -0.171 OA
HETATM    9  C   UNL     1      -6.770  -7.774   0.000  1.00  0.00     0.045 C 
HETATM   10  O   UNL     1      -4.172  -3.275   0.000  1.00  0.00    -0.194 OA
ENDROOT
BRANCH   2  11
HETATM   11  C   UNL     1      -1.574  -4.774   0.000  1.00  0.00     0.234 C 
HETATM   12  O   UNL     1      -1.574  -3.275   0.000  1.00  0.00    -0.163 OA
BRANCH  11  13
HETATM   13  O   UNL     1      -0.275  -5.524   0.000  1.00  0.00    -0.309 OA
BRANCH  13  14
HETATM   14  C   UNL     1       1.024  -4.774   0.000  1.00  0.00     0.151 C 
HETATM   15  C   UNL     1       1.024  -3.275   0.000  1.00  0.00     0.035 C 
ENDBRANCH  13  14
ENDBRANCH  11  13
ENDBRANCH   2  11
TORSDOF 3
