REMARK  3 active torsions:
REMARK  status: ('A' for Active; 'I' for Inactive)
REMARK    1  A    between atoms: C_3  and  C_6 
REMARK    2  A    between atoms: C_3  and  C_9 
REMARK    3  A    between atoms: C_9  and  C_10 
ROOT
HETATM    1  C   UNL     1       5.471   7.024   0.000  1.00  0.00    -0.014 C 
HETATM    2  C   UNL     1       6.770   7.774   0.000  1.00  0.00    -0.077 C 
HETATM    3  C   UNL     1       8.069   8.524   0.000  1.00  0.00     0.091 C 
ENDROOT
BRANCH   1   4
HETATM    4  C   UNL     1       4.172   6.274   0.000  1.00  0.00    -0.012 C 
BRANCH   4   5
HETATM    5  C   UNL     1       2.873   5.524   0.000  1.00  0.00    -0.049 C 
BRANCH   5   6
HETATM    6  C   UNL     1       1.574   4.774   0.000  1.00  0.00     0.182 A 
HETATM    7  O   UNL     1       1.574   3.275   0.000  1.00  0.00    -0.318 OA
HETATM    8  C   UNL     1       0.275   2.525   0.000  1.00  0.00     0.270 A 
HETATM    9  O   UNL     1       0.275   1.024   0.000  1.00  0.00    -0.190 OA
HETATM   10  C   UNL     1      -1.024   3.275   0.000  1.00  0.00     0.065 A 
HETATM   11  C   UNL     1      -1.024   4.774   0.000  1.00  0.00     0.009 A 
HETATM   12  C   UNL     1       0.275   5.524   0.000  1.00  0.00     0.043 A 
ENDBRANCH   5   6
ENDBRANCH   4   5
ENDBRANCH   1   4
TORSDOF 3
