REMARK  0 active torsions:
REMARK  status: ('A' for Active; 'I' for Inactive)
ROOT
HETATM    1  N   UNL     1      -5.946  -0.750   0.000  1.00  0.00    -0.254 NA
HETATM    2  C   UNL     1      -8.544  -0.750   0.000  1.00  0.00     0.046 A 
HETATM    3  C   UNL     1      -7.245  -1.500   0.000  1.00  0.00     0.057 A 
HETATM    4  C   UNL     1      -9.843  -1.500   0.000  1.00  0.00     0.007 A 
HETATM    5  C   UNL     1      -7.245  -3.000   0.000  1.00  0.00     0.017 A 
HETATM    6  C   UNL     1      -9.843  -3.000   0.000  1.00  0.00     0.005 A 
HETATM    7  C   UNL     1      -8.544  -3.750   0.000  1.00  0.00     0.030 A 
HETATM    8  C   UNL     1      -5.946  -3.750   0.000  1.00  0.00     0.131 A 
HETATM    9  C   UNL     1      -4.647  -1.500   0.000  1.00  0.00     0.067 A 
HETATM   10  C   UNL     1      -4.647  -3.000   0.000  1.00  0.00     0.057 A 
HETATM   11  C   UNL     1     -11.142  -3.750   0.000  1.00  0.00     0.000 C 
HETATM   12  O   UNL     1      -5.946  -5.250   0.000  1.00  0.00    -0.190 OA
HETATM   13  C   UNL     1      -3.348  -0.750   0.000  1.00  0.00     0.111 A 
HETATM   14  C   UNL     1      -2.049  -1.500   0.000  1.00  0.00     0.279 A 
HETATM   15  O   UNL     1      -0.750  -0.750   0.000  1.00  0.00    -0.189 OA
HETATM   16  O   UNL     1      -2.049  -3.000   0.000  1.00  0.00    -0.308 OA
HETATM   17  C   UNL     1      -3.348  -3.750   0.000  1.00  0.00     0.078 A 
HETATM   18  C   UNL     1      -3.348  -5.250   0.000  1.00  0.00     0.058 C 
ENDROOT
TORSDOF 0
