REMARK  2 active torsions:
REMARK  status: ('A' for Active; 'I' for Inactive)
REMARK    1  A    between atoms: C_8  and  C_9 
REMARK    2  A    between atoms: C_11  and  O_13 
ROOT
HETATM    1  C   UNL     1      -7.245  -0.750   0.000  1.00  0.00     0.046 A 
HETATM    2  C   UNL     1      -8.544  -1.500   0.000  1.00  0.00     0.007 A 
HETATM    3  C   UNL     1      -5.946  -1.500   0.000  1.00  0.00     0.061 A 
HETATM    4  C   UNL     1      -5.946  -3.000   0.000  1.00  0.00     0.038 A 
HETATM    5  C   UNL     1      -8.544  -3.000   0.000  1.00  0.00     0.005 A 
HETATM    6  C   UNL     1      -7.245  -3.750   0.000  1.00  0.00     0.032 A 
HETATM    7  N   UNL     1      -4.647  -0.750   0.000  1.00  0.00    -0.228 NA
HETATM    8  C   UNL     1      -3.348  -1.500   0.000  1.00  0.00     0.194 A 
HETATM    9  C   UNL     1      -4.647  -3.750   0.000  1.00  0.00     0.197 A 
HETATM   10  O   UNL     1      -3.348  -3.000   0.000  1.00  0.00    -0.269 OA
ENDROOT
BRANCH   8  11
HETATM   11  C   UNL     1      -2.049  -0.750   0.000  1.00  0.00     0.253 C 
HETATM   12  O   UNL     1      -0.750  -1.500   0.000  1.00  0.00    -0.211 OA
ENDBRANCH   8  11
BRANCH   9  13
HETATM   13  O   UNL     1      -4.647  -5.250   0.000  1.00  0.00    -0.308 OA
HETATM   14  C   UNL     1      -3.348  -6.000   0.000  1.00  0.00     0.184 C 
ENDBRANCH   9  13
TORSDOF 2
