REMARK  2 active torsions:
REMARK  status: ('A' for Active; 'I' for Inactive)
REMARK    1  A    between atoms: C_6  and  C_17 
REMARK    2  A    between atoms: C_13  and  C_17 
ROOT
HETATM    1  N   UNL     1       6.120   8.899   0.000  1.00  0.00    -0.258 NA
HETATM    2  C   UNL     1       3.522   8.899   0.000  1.00  0.00     0.050 A 
HETATM    3  C   UNL     1       4.821   8.149   0.000  1.00  0.00     0.057 A 
HETATM    4  C   UNL     1       2.223   8.149   0.000  1.00  0.00     0.031 A 
HETATM    5  C   UNL     1       4.821   6.649   0.000  1.00  0.00     0.017 A 
HETATM    6  C   UNL     1       2.223   6.649   0.000  1.00  0.00    -0.015 A 
HETATM    7  C   UNL     1       6.120   5.899   0.000  1.00  0.00     0.112 A 
HETATM    8  C   UNL     1       7.419   8.149   0.000  1.00  0.00     0.043 A 
HETATM    9  C   UNL     1       7.419   6.649   0.000  1.00  0.00     0.095 A 
HETATM   10  C   UNL     1       3.522   5.899   0.000  1.00  0.00     0.053 A 
HETATM   11  O   UNL     1       6.120   4.399   0.000  1.00  0.00    -0.195 OA
HETATM   12  C   UNL     1       8.718   8.899   0.000  1.00  0.00     0.048 C 
ENDROOT
BRANCH   6  13
HETATM   13  C   UNL     1       0.924   5.899   0.000  1.00  0.00     0.116 C 
HETATM   14  O   UNL     1      -0.375   6.649   0.000  1.00  0.00    -0.192 OA
BRANCH  13  15
HETATM   15  C   UNL     1       0.924   4.399   0.000  1.00  0.00    -0.019 A 
HETATM   16  C   UNL     1      -0.375   3.650   0.000  1.00  0.00     0.024 A 
HETATM   17  C   UNL     1      -0.375   2.150   0.000  1.00  0.00     0.004 A 
HETATM   18  C   UNL     1       0.924   1.399   0.000  1.00  0.00     0.001 A 
HETATM   19  C   UNL     1       2.223   2.150   0.000  1.00  0.00     0.004 A 
HETATM   20  C   UNL     1       2.223   3.650   0.000  1.00  0.00     0.024 A 
ENDBRANCH  13  15
ENDBRANCH   6  13
TORSDOF 2
