REMARK  0 active torsions:
REMARK  status: ('A' for Active; 'I' for Inactive)
ROOT
HETATM    1  N   UNL     1       3.184   6.992   0.000  1.00  0.00    -0.128 NA
HETATM    2  N   UNL     1       4.172   4.774   0.000  1.00  0.00    -0.286 N 
HETATM    3  N   UNL     1       4.676   7.149   0.000  1.00  0.00    -0.117 NA
HETATM    4 CL   UNL     1       6.754   5.466   0.000  1.00  0.00    -0.041 Cl
HETATM    5  C   UNL     1       5.286   5.778   0.000  1.00  0.00     0.226 A 
HETATM    6  C   UNL     1       2.873   5.524   0.000  1.00  0.00     0.163 A 
HETATM    7  C   UNL     1       1.573   4.774   0.000  1.00  0.00     0.006 A 
HETATM    8  C   UNL     1       0.275   5.524   0.000  1.00  0.00     0.029 A 
HETATM    9  C   UNL     1      -1.024   4.774   0.000  1.00  0.00     0.005 A 
HETATM   10  C   UNL     1       1.573   3.275   0.000  1.00  0.00    -0.043 A 
HETATM   11  C   UNL     1      -1.024   3.275   0.000  1.00  0.00     0.005 A 
HETATM   12  C   UNL     1       0.275   2.525   0.000  1.00  0.00     0.022 A 
HETATM   13  C   UNL     1       2.873   2.525   0.000  1.00  0.00     0.046 A 
HETATM   14  C   UNL     1       4.172   3.275   0.000  1.00  0.00     0.114 A 
ENDROOT
TORSDOF 0
