REMARK  0 active torsions:
REMARK  status: ('A' for Active; 'I' for Inactive)
ROOT
HETATM    1  N   UNL     1      -4.422  -2.250   0.000  1.00  0.00    -0.254 NA
HETATM    2  C   UNL     1      -7.021  -2.250   0.000  1.00  0.00    -0.026 A 
HETATM    3  C   UNL     1      -5.721  -3.000   0.000  1.00  0.00     0.074 A 
HETATM    4  C   UNL     1      -8.319  -3.000   0.000  1.00  0.00     0.028 A 
HETATM    5  C   UNL     1      -5.721  -4.500   0.000  1.00  0.00     0.031 A 
HETATM    6  C   UNL     1      -8.319  -4.500   0.000  1.00  0.00     0.026 A 
HETATM    7  C   UNL     1      -4.422  -5.250   0.000  1.00  0.00     0.115 A 
HETATM    8  C   UNL     1      -3.123  -3.000   0.000  1.00  0.00     0.044 A 
HETATM    9  C   UNL     1      -3.123  -4.500   0.000  1.00  0.00     0.096 A 
HETATM   10  C   UNL     1      -7.021  -5.250   0.000  1.00  0.00    -0.040 A 
HETATM   11  C   UNL     1      -7.021  -0.750   0.000  1.00  0.00     0.028 C 
HETATM   12  C   UNL     1      -7.021  -6.750   0.000  1.00  0.00     0.026 C 
HETATM   13  O   UNL     1      -4.422  -6.750   0.000  1.00  0.00    -0.194 OA
HETATM   14  C   UNL     1      -1.824  -2.250   0.000  1.00  0.00     0.048 C 
ENDROOT
TORSDOF 0
