REMARK  1 active torsions:
REMARK  status: ('A' for Active; 'I' for Inactive)
REMARK    1  A    between atoms: N_4  and  C_8 
ROOT
HETATM    1  N   UNL     1      -1.024   3.275   0.000  1.00  0.00    -0.213 NA
HETATM    2  N   UNL     1       0.275   5.524   0.000  1.00  0.00    -0.061 NA
HETATM    3  N   UNL     1       1.574   3.275   0.000  1.00  0.00    -0.029 NA
HETATM    4  C   UNL     1       1.574   4.774   0.000  1.00  0.00     0.727 A 
HETATM    5  C   UNL     1      -1.024   4.774   0.000  1.00  0.00     0.272 A 
HETATM    6  C   UNL     1       0.275   2.525   0.000  1.00  0.00     0.252 A 
HETATM    7  N   UNL     1       0.275   1.024   0.000  1.00  0.00    -0.059 NA
ENDROOT
BRANCH   4   8
HETATM    8  N   UNL     1       2.873   5.524   0.000  1.00  0.00    -0.178 N 
HETATM    9  C   UNL     1       2.873   7.024   0.000  1.00  0.00     0.152 A 
HETATM   10  C   UNL     1       4.172   7.774   0.000  1.00  0.00     0.167 A 
HETATM   11  O   UNL     1       5.471   7.024   0.000  1.00  0.00    -0.350 OA
HETATM   12  C   UNL     1       5.471   5.524   0.000  1.00  0.00     0.167 A 
HETATM   13  C   UNL     1       4.172   4.774   0.000  1.00  0.00     0.152 A 
ENDBRANCH   4   8
TORSDOF 1
