REMARK  1 active torsions:
REMARK  status: ('A' for Active; 'I' for Inactive)
REMARK    1  A    between atoms: C_6  and  O_12 
ROOT
HETATM    1 BR   UNL     1      -4.357   0.750   0.000  1.00  0.00    -0.054 Br
HETATM    2  O   UNL     1      -1.168   6.390   0.000  1.00  0.00    -0.195 OA
HETATM    3  C   UNL     1      -1.632   4.963   0.000  1.00  0.00     0.110 A 
HETATM    4  C   UNL     1      -0.750   3.750   0.000  1.00  0.00     0.059 A 
HETATM    5  C   UNL     1      -3.058   4.500   0.000  1.00  0.00     0.036 A 
HETATM    6  C   UNL     1      -4.357   5.250   0.000  1.00  0.00     0.073 A 
HETATM    7  C   UNL     1      -5.656   4.500   0.000  1.00  0.00     0.056 A 
HETATM    8  C   UNL     1      -1.632   2.537   0.000  1.00  0.00     0.034 A 
HETATM    9  C   UNL     1      -3.058   3.000   0.000  1.00  0.00    -0.016 A 
HETATM   10  C   UNL     1      -5.656   3.000   0.000  1.00  0.00     0.040 A 
HETATM   11  C   UNL     1      -4.357   2.250   0.000  1.00  0.00     0.009 A 
ENDROOT
BRANCH   6  12
HETATM   12  O   UNL     1      -4.357   6.750   0.000  1.00  0.00    -0.332 OA
HETATM   13  C   UNL     1      -5.656   7.500   0.000  1.00  0.00     0.181 C 
ENDBRANCH   6  12
TORSDOF 1
