REMARK  0 active torsions:
REMARK  status: ('A' for Active; 'I' for Inactive)
ROOT
HETATM    1  C   UNL     1       0.885  -4.851   0.000  1.00  0.00     0.096 A 
HETATM    2  C   UNL     1      -0.265  -3.886   0.000  1.00  0.00     0.094 A 
HETATM    3  C   UNL     1       2.294  -4.338   0.000  1.00  0.00     0.053 A 
HETATM    4  C   UNL     1       2.555  -2.860   0.000  1.00  0.00     0.011 A 
HETATM    5  C   UNL     1      -0.004  -2.409   0.000  1.00  0.00    -0.025 A 
HETATM    6  C   UNL     1       1.405  -1.896   0.000  1.00  0.00     0.024 A 
HETATM    7  C   UNL     1      -2.973  -8.149   0.000  1.00  0.00     0.096 A 
HETATM    8  C   UNL     1      -1.674  -8.899   0.000  1.00  0.00     0.094 A 
HETATM    9  C   UNL     1      -4.272  -8.899   0.000  1.00  0.00     0.053 A 
HETATM   10  C   UNL     1      -1.674 -10.399   0.000  1.00  0.00    -0.025 A 
HETATM   11  C   UNL     1      -4.272 -10.399   0.000  1.00  0.00     0.011 A 
HETATM   12  C   UNL     1      -2.973 -11.149   0.000  1.00  0.00     0.024 A 
HETATM   13  C   UNL     1      -0.375 -11.149   0.000  1.00  0.00     0.028 C 
HETATM   14  N   UNL     1      -0.375  -8.149   0.000  1.00  0.00    -0.218 NA
HETATM   15  C   UNL     1      -0.375  -6.649   0.000  1.00  0.00     0.225 A 
HETATM   16  O   UNL     1       0.924  -5.899   0.000  1.00  0.00    -0.290 OA
HETATM   17  C   UNL     1      -1.674  -5.899   0.000  1.00  0.00     0.225 A 
HETATM   18  O   UNL     1      -2.973  -6.649   0.000  1.00  0.00    -0.290 OA
HETATM   19  N   UNL     1      -1.674  -4.399   0.000  1.00  0.00    -0.218 NA
HETATM   20  C   UNL     1      -1.153  -1.445   0.000  1.00  0.00     0.028 C 
ENDROOT
TORSDOF 0
