REMARK  4 active torsions:
REMARK  status: ('A' for Active; 'I' for Inactive)
REMARK    1  A    between atoms: C_6  and  C_21 
REMARK    2  A    between atoms: C_9  and  C_19 
REMARK    3  A    between atoms: C_13  and  N_23 
REMARK    4  A    between atoms: C_14  and  N_18 
REMARK       I    between atoms: N_18  and  C_19 
REMARK       I    between atoms: C_21  and  N_23 
ROOT
HETATM    1  C   UNL     1      -7.222  -5.035   0.000  1.00  0.00     0.030 A 
HETATM    2  C   UNL     1      -5.923  -5.785   0.000  1.00  0.00     0.000 A 
HETATM    3  C   UNL     1      -8.521  -5.785   0.000  1.00  0.00     0.030 A 
HETATM    4  C   UNL     1      -5.923  -7.285   0.000  1.00  0.00     0.030 A 
HETATM    5  C   UNL     1      -8.521  -7.285   0.000  1.00  0.00     0.000 A 
HETATM    6  C   UNL     1      -7.222  -8.035   0.000  1.00  0.00     0.030 A 
ENDROOT
BRANCH   2   7
HETATM    7  C   UNL     1      -4.623  -5.035   0.000  1.00  0.00     0.207 C 
HETATM    8  O   UNL     1      -4.623  -3.535   0.000  1.00  0.00    -0.170 OA
HETATM    9  N   UNL     1      -3.325  -5.785   0.000  1.00  0.00    -0.196 NA
BRANCH   9  10
HETATM   10  C   UNL     1      -2.025  -5.035   0.000  1.00  0.00     0.188 A 
HETATM   11  N   UNL     1      -0.655  -5.646   0.000  1.00  0.00    -0.249 NA
HETATM   12  C   UNL     1       0.349  -4.531   0.000  1.00  0.00     0.117 A 
HETATM   13  C   UNL     1      -0.401  -3.232   0.000  1.00  0.00     0.089 A 
HETATM   14  C   UNL     1       1.840  -4.688   0.000  1.00  0.00     0.027 C 
HETATM   15  S   UNL     1      -1.869  -3.544   0.000  1.00  0.00    -0.074 SA
ENDBRANCH   9  10
ENDBRANCH   2   7
BRANCH   5  16
HETATM   16  C   UNL     1      -9.820  -8.035   0.000  1.00  0.00     0.207 C 
HETATM   17  N   UNL     1      -9.820  -9.535   0.000  1.00  0.00    -0.196 NA
HETATM   18  O   UNL     1     -11.119  -7.285   0.000  1.00  0.00    -0.170 OA
BRANCH  17  19
HETATM   19  C   UNL     1     -11.119 -10.285   0.000  1.00  0.00     0.188 A 
HETATM   20  S   UNL     1     -12.489  -9.675   0.000  1.00  0.00    -0.074 SA
HETATM   21  C   UNL     1     -13.493 -10.790   0.000  1.00  0.00     0.089 A 
HETATM   22  C   UNL     1     -12.743 -12.089   0.000  1.00  0.00     0.117 A 
HETATM   23  N   UNL     1     -11.275 -11.777   0.000  1.00  0.00    -0.249 NA
HETATM   24  C   UNL     1     -13.353 -13.459   0.000  1.00  0.00     0.027 C 
ENDBRANCH  17  19
ENDBRANCH   5  16
TORSDOF 4
