REMARK  3 active torsions:
REMARK  status: ('A' for Active; 'I' for Inactive)
REMARK    1  A    between atoms: C_3  and  N_19 
REMARK    2  A    between atoms: C_4  and  O_20 
REMARK    3  A    between atoms: O_20  and  C_21 
ROOT
HETATM    1  C   UNL     1     -12.459   1.014   0.000  1.00  0.00     0.191 A 
HETATM    2  C   UNL     1     -13.937   0.753   0.000  1.00  0.00     0.042 A 
HETATM    3  C   UNL     1     -14.450  -0.656   0.000  1.00  0.00     0.004 A 
HETATM    4  C   UNL     1     -11.495  -0.135   0.000  1.00  0.00     0.055 A 
HETATM    5  C   UNL     1     -13.485  -1.805   0.000  1.00  0.00     0.006 A 
HETATM    6  C   UNL     1     -12.008  -1.545   0.000  1.00  0.00     0.043 A 
HETATM    7  C   UNL     1     -12.972   2.423   0.000  1.00  0.00     0.021 C 
HETATM    8  N   UNL     1     -13.485   3.833   0.000  1.00  0.00    -0.098 N 
HETATM    9  N   UNL     1     -11.160   1.764   0.000  1.00  0.00    -0.154 N 
HETATM   10  O   UNL     1     -11.160   3.264   0.000  1.00  0.00    -0.080 OA
HETATM   11  C   UNL     1      -9.861   1.014   0.000  1.00  0.00     0.289 A 
HETATM   12  O   UNL     1      -8.562   1.764   0.000  1.00  0.00    -0.148 OA
HETATM   13  N   UNL     1      -9.861  -0.486   0.000  1.00  0.00    -0.283 N 
ENDROOT
BRANCH  13  14
HETATM   14  C   UNL     1      -8.562  -1.236   0.000  1.00  0.00     0.022 A 
HETATM   15  C   UNL     1      -7.263  -0.486   0.000  1.00  0.00     0.042 A 
HETATM   16  C   UNL     1      -5.964  -1.236   0.000  1.00  0.00     0.035 A 
HETATM   17  C   UNL     1      -5.964  -2.736   0.000  1.00  0.00     0.116 A 
HETATM   18  C   UNL     1      -7.263  -3.486   0.000  1.00  0.00     0.035 A 
HETATM   19  C   UNL     1      -8.562  -2.736   0.000  1.00  0.00     0.042 A 
BRANCH  17  20
HETATM   20  O   UNL     1      -4.665  -3.486   0.000  1.00  0.00    -0.357 OA
BRANCH  20  21
HETATM   21  C   UNL     1      -3.366  -2.736   0.000  1.00  0.00     0.142 C 
HETATM   22  C   UNL     1      -2.067  -3.486   0.000  1.00  0.00     0.035 C 
ENDBRANCH  20  21
ENDBRANCH  17  20
ENDBRANCH  13  14
TORSDOF 3
