REMARK  2 active torsions:
REMARK  status: ('A' for Active; 'I' for Inactive)
REMARK    1  A    between atoms: C_3  and  O_16 
REMARK    2  A    between atoms: S_13  and  O_16 
ROOT
HETATM    1 BR   UNL     1      -5.571  -2.350   0.000  1.00  0.00    -0.054 Br
HETATM    2  N   UNL     1      -2.973   2.150   0.000  1.00  0.00    -0.269 NA
HETATM    3  C   UNL     1      -5.571   2.150   0.000  1.00  0.00     0.108 A 
HETATM    4  C   UNL     1      -4.272   1.399   0.000  1.00  0.00     0.092 A 
HETATM    5  C   UNL     1      -6.870   1.399   0.000  1.00  0.00     0.059 A 
HETATM    6  C   UNL     1      -4.272  -0.101   0.000  1.00  0.00    -0.001 A 
HETATM    7  C   UNL     1      -6.870  -0.101   0.000  1.00  0.00     0.040 A 
HETATM    8  C   UNL     1      -5.571  -0.851   0.000  1.00  0.00     0.010 A 
HETATM    9  C   UNL     1      -2.973  -0.851   0.000  1.00  0.00     0.030 A 
HETATM   10  C   UNL     1      -1.674   1.399   0.000  1.00  0.00     0.126 A 
HETATM   11  C   UNL     1      -1.674  -0.101   0.000  1.00  0.00     0.031 A 
ENDROOT
BRANCH   3  12
HETATM   12  O   UNL     1      -5.571   3.650   0.000  1.00  0.00    -0.233 OA
BRANCH  12  13
HETATM   13  S   UNL     1      -6.870   4.399   0.000  1.00  0.00     0.284 S 
HETATM   14  C   UNL     1      -7.620   3.100   0.000  1.00  0.00     0.172 C 
HETATM   15  O   UNL     1      -8.169   5.149   0.000  1.00  0.00    -0.197 OA
HETATM   16  O   UNL     1      -6.120   5.699   0.000  1.00  0.00    -0.197 OA
ENDBRANCH  12  13
ENDBRANCH   3  12
TORSDOF 2
