REMARK  2 active torsions:
REMARK  status: ('A' for Active; 'I' for Inactive)
REMARK    1  A    between atoms: C_4  and  O_16 
REMARK    2  A    between atoms: S_13  and  O_16 
ROOT
HETATM    1  O   UNL     1      -3.348  -1.299   0.000  1.00  0.00    -0.308 OA
HETATM    2  O   UNL     1      -0.750  -1.299   0.000  1.00  0.00    -0.189 OA
HETATM    3  C   UNL     1      -5.946  -1.299   0.000  1.00  0.00     0.082 A 
HETATM    4  C   UNL     1      -7.245  -2.049   0.000  1.00  0.00     0.141 A 
HETATM    5  C   UNL     1      -4.647  -2.049   0.000  1.00  0.00     0.072 A 
HETATM    6  C   UNL     1      -4.647  -3.549   0.000  1.00  0.00    -0.011 A 
HETATM    7  C   UNL     1      -7.245  -3.549   0.000  1.00  0.00     0.036 A 
HETATM    8  C   UNL     1      -3.348  -4.299   0.000  1.00  0.00    -0.041 A 
HETATM    9  C   UNL     1      -2.049  -2.049   0.000  1.00  0.00     0.277 A 
HETATM   10  C   UNL     1      -2.049  -3.549   0.000  1.00  0.00     0.087 A 
HETATM   11  C   UNL     1      -5.946  -4.299   0.000  1.00  0.00     0.030 A 
HETATM   12  C   UNL     1      -3.348  -5.799   0.000  1.00  0.00     0.026 C 
ENDROOT
BRANCH   4  13
HETATM   13  O   UNL     1      -8.544  -1.299   0.000  1.00  0.00    -0.258 OA
BRANCH  13  14
HETATM   14  S   UNL     1      -9.843  -2.049   0.000  1.00  0.00     0.280 S 
HETATM   15  C   UNL     1     -10.593  -0.750   0.000  1.00  0.00     0.171 C 
HETATM   16  O   UNL     1     -11.142  -2.799   0.000  1.00  0.00    -0.198 OA
HETATM   17  O   UNL     1      -9.093  -3.348   0.000  1.00  0.00    -0.198 OA
ENDBRANCH  13  14
ENDBRANCH   4  13
TORSDOF 2
