REMARK  2 active torsions:
REMARK  status: ('A' for Active; 'I' for Inactive)
REMARK    1  A    between atoms: C_8  and  S_11 
REMARK    2  A    between atoms: S_11  and  C_12 
ROOT
HETATM    1  N   UNL     1      -3.522  -4.399   0.000  1.00  0.00    -0.337 N 
HETATM    2  H   UNL     1      -3.522  -2.900   0.000  1.00  0.00     0.168 HD
HETATM    3  O   UNL     1      -3.522  -8.899   0.000  1.00  0.00    -0.169 OA
HETATM    4  N   UNL     1      -2.223  -6.649   0.000  1.00  0.00    -0.197 NA
HETATM    5  C   UNL     1      -4.821  -5.149   0.000  1.00  0.00     0.035 A 
HETATM    6  C   UNL     1      -4.821  -6.649   0.000  1.00  0.00     0.034 A 
HETATM    7  C   UNL     1      -3.522  -7.399   0.000  1.00  0.00     0.211 A 
HETATM    8  C   UNL     1      -2.223  -5.149   0.000  1.00  0.00     0.170 A 
HETATM    9  C   UNL     1      -6.120  -4.399   0.000  1.00  0.00     0.050 C 
HETATM   10  C   UNL     1      -6.120  -7.399   0.000  1.00  0.00     0.036 C 
ENDROOT
BRANCH   8  11
HETATM   11  S   UNL     1      -0.924  -4.399   0.000  1.00  0.00    -0.077 SA
BRANCH  11  12
HETATM   12  C   UNL     1       0.375  -5.149   0.000  1.00  0.00     0.065 C 
HETATM   13  C   UNL     1       1.674  -4.399   0.000  1.00  0.00     0.013 C 
ENDBRANCH  11  12
ENDBRANCH   8  11
TORSDOF 2
