REMARK  4 active torsions:
REMARK  status: ('A' for Active; 'I' for Inactive)
REMARK    1  A    between atoms: C_4  and  S_18 
REMARK    2  A    between atoms: C_10  and  S_15 
REMARK    3  A    between atoms: S_15  and  C_16 
REMARK    4  A    between atoms: C_16  and  S_18 
ROOT
HETATM    1  C   UNL     1       5.571  -0.851   0.000  1.00  0.00     0.106 C 
HETATM    2  S   UNL     1       5.571  -2.350   0.000  1.00  0.00    -0.065 SA
ENDROOT
BRANCH   1   3
HETATM    3  S   UNL     1       4.272  -0.101   0.000  1.00  0.00    -0.098 SA
BRANCH   3   4
HETATM    4  C   UNL     1       4.272   1.399   0.000  1.00  0.00     0.054 A 
HETATM    5  C   UNL     1       5.571   2.150   0.000  1.00  0.00     0.016 A 
HETATM    6  C   UNL     1       5.571   3.650   0.000  1.00  0.00     0.034 A 
HETATM    7  C   UNL     1       4.272   4.399   0.000  1.00  0.00     0.013 A 
HETATM    8 CL   UNL     1       4.272   5.899   0.000  1.00  0.00    -0.092 Cl
HETATM    9  C   UNL     1       2.973   3.650   0.000  1.00  0.00     0.034 A 
HETATM   10  C   UNL     1       2.973   2.150   0.000  1.00  0.00     0.016 A 
ENDBRANCH   3   4
ENDBRANCH   1   3
BRANCH   1  11
HETATM   11  S   UNL     1       6.870  -0.101   0.000  1.00  0.00    -0.098 SA
BRANCH  11  12
HETATM   12  C   UNL     1       8.169  -0.851   0.000  1.00  0.00     0.054 A 
HETATM   13  C   UNL     1       9.468  -0.101   0.000  1.00  0.00     0.016 A 
HETATM   14  C   UNL     1      10.767  -0.851   0.000  1.00  0.00     0.034 A 
HETATM   15  C   UNL     1      10.767  -2.350   0.000  1.00  0.00     0.013 A 
HETATM   16 CL   UNL     1      12.066  -3.100   0.000  1.00  0.00    -0.092 Cl
HETATM   17  C   UNL     1       9.468  -3.100   0.000  1.00  0.00     0.034 A 
HETATM   18  C   UNL     1       8.169  -2.350   0.000  1.00  0.00     0.016 A 
ENDBRANCH  11  12
ENDBRANCH   1  11
TORSDOF 4
