REMARK  4 active torsions:
REMARK  status: ('A' for Active; 'I' for Inactive)
REMARK    1  A    between atoms: N_1  and  C_22 
REMARK    2  A    between atoms: N_2  and  C_5 
REMARK    3  A    between atoms: C_16  and  C_22 
REMARK    4  A    between atoms: C_18  and  O_20 
ROOT
HETATM    1  N   UNL     1      -1.573  10.774   0.000  1.00  0.00    -0.337 N 
HETATM    2  N   UNL     1       1.025  12.274   0.000  1.00  0.00    -0.351 N 
HETATM    3  C   UNL     1      -0.275  13.024   0.000  1.00  0.00     0.125 A 
HETATM    4  C   UNL     1      -1.573  12.274   0.000  1.00  0.00     0.126 A 
HETATM    5  C   UNL     1       1.025  10.774   0.000  1.00  0.00     0.125 A 
HETATM    6  C   UNL     1      -0.275  10.024   0.000  1.00  0.00     0.126 A 
ENDROOT
BRANCH   1   7
HETATM    7  C   UNL     1      -2.873  10.024   0.000  1.00  0.00     0.104 C 
HETATM    8  S   UNL     1      -4.172  10.774   0.000  1.00  0.00    -0.060 SA
BRANCH   7   9
HETATM    9  C   UNL     1      -2.873   8.524   0.000  1.00  0.00    -0.018 A 
HETATM   10  C   UNL     1      -4.172   7.774   0.000  1.00  0.00     0.027 A 
HETATM   11  C   UNL     1      -4.172   6.274   0.000  1.00  0.00     0.034 A 
HETATM   12  C   UNL     1      -2.873   5.524   0.000  1.00  0.00     0.116 A 
HETATM   13  C   UNL     1      -1.573   6.274   0.000  1.00  0.00     0.034 A 
HETATM   14  C   UNL     1      -1.573   7.774   0.000  1.00  0.00     0.027 A 
BRANCH  12  15
HETATM   15  O   UNL     1      -2.873   4.024   0.000  1.00  0.00    -0.354 OA
HETATM   16  C   UNL     1      -4.172   3.275   0.000  1.00  0.00     0.174 C 
ENDBRANCH  12  15
ENDBRANCH   7   9
ENDBRANCH   1   7
BRANCH   2  17
HETATM   17  C   UNL     1       2.324  13.024   0.000  1.00  0.00     0.015 A 
HETATM   18  C   UNL     1       2.324  14.524   0.000  1.00  0.00     0.040 A 
HETATM   19  C   UNL     1       3.623  15.274   0.000  1.00  0.00     0.011 A 
HETATM   20  C   UNL     1       4.922  14.524   0.000  1.00  0.00     0.034 A 
HETATM   21  C   UNL     1       4.922  13.024   0.000  1.00  0.00     0.019 A 
HETATM   22 CL   UNL     1       6.221  12.274   0.000  1.00  0.00    -0.091 Cl
HETATM   23  C   UNL     1       3.623  12.274   0.000  1.00  0.00     0.072 A 
ENDBRANCH   2  17
TORSDOF 4
