REMARK  1 active torsions:
REMARK  status: ('A' for Active; 'I' for Inactive)
REMARK    1  A    between atoms: N_4  and  C_7 
ROOT
HETATM    1  C   UNL     1       5.174   2.099   0.000  1.00  0.00     0.103 A 
HETATM    2  C   UNL     1       4.710   3.526   0.000  1.00  0.00     0.029 C 
HETATM    3  C   UNL     1       5.637   0.673   0.000  1.00  0.00    -0.009 A 
HETATM    4  C   UNL     1       6.600   2.563   0.000  1.00  0.00     0.030 A 
HETATM    5  C   UNL     1       7.715   1.559   0.000  1.00  0.00     0.021 A 
HETATM    6  C   UNL     1       6.711   0.444   0.000  1.00  0.00    -0.029 A 
HETATM    7  C   UNL     1       8.719   2.674   0.000  1.00  0.00     0.004 C 
HETATM    8  C   UNL     1       8.830   0.555   0.000  1.00  0.00     0.004 C 
ENDROOT
BRANCH   1   9
HETATM    9  N   UNL     1       3.747   1.636   0.000  1.00  0.00    -0.231 N 
HETATM   10  N   UNL     1       3.284   0.209   0.000  1.00  0.00    -0.001 NA
HETATM   11  N   UNL     1       1.784   0.209   0.000  1.00  0.00     0.019 NA
HETATM   12  N   UNL     1       1.320   1.636   0.000  1.00  0.00    -0.127 NA
HETATM   13  C   UNL     1       2.534   2.517   0.000  1.00  0.00     0.246 A 
HETATM   14  N   UNL     1       2.534   4.017   0.000  1.00  0.00    -0.059 NA
ENDBRANCH   1   9
TORSDOF 1
