REMARK  2 active torsions:
REMARK  status: ('A' for Active; 'I' for Inactive)
REMARK    1  A    between atoms: C_1  and  C_2 
REMARK    2  A    between atoms: C_1  and  C_4 
ROOT
HETATM    1  C   UNL     1      -4.500  -2.250   0.000  1.00  0.00     0.004 A 
HETATM    2  C   UNL     1      -5.250  -3.549   0.000  1.00  0.00     0.000 A 
HETATM    3  C   UNL     1      -6.750  -3.549   0.000  1.00  0.00     0.000 A 
HETATM    4  C   UNL     1      -7.500  -2.250   0.000  1.00  0.00     0.000 A 
HETATM    5  C   UNL     1      -6.750  -0.951   0.000  1.00  0.00     0.000 A 
HETATM    6  C   UNL     1      -5.250  -0.951   0.000  1.00  0.00     0.000 A 
ENDROOT
BRANCH   1   7
HETATM    7  C   UNL     1      -3.000  -2.250   0.000  1.00  0.00     0.065 C 
HETATM    8  C   UNL     1      -3.000  -0.750   0.000  1.00  0.00     0.005 C 
HETATM    9  C   UNL     1      -3.000  -3.750   0.000  1.00  0.00     0.005 C 
BRANCH   7  10
HETATM   10  C   UNL     1      -1.500  -2.250   0.000  1.00  0.00     0.451 C 
HETATM   11  O   UNL     1      -0.750  -0.951   0.000  1.00  0.00    -0.182 OA
HETATM   12  N   UNL     1      -0.750  -3.549   0.000  1.00  0.00     0.652 N 
ENDBRANCH   7  10
ENDBRANCH   1   7
TORSDOF 2
