REMARK  2 active torsions:
REMARK  status: ('A' for Active; 'I' for Inactive)
REMARK    1  A    between atoms: C_4  and  C_16 
REMARK    2  A    between atoms: C_10  and  C_16 
ROOT
HETATM    1  C   UNL     1       6.221  -1.774   0.000  1.00  0.00     0.027 A 
HETATM    2  C   UNL     1       6.221  -0.275   0.000  1.00  0.00     0.038 A 
HETATM    3  C   UNL     1       4.922  -2.525   0.000  1.00  0.00    -0.019 A 
HETATM    4  C   UNL     1       3.623  -1.774   0.000  1.00  0.00     0.103 A 
HETATM    5  C   UNL     1       4.922   0.475   0.000  1.00  0.00     0.159 A 
HETATM    6  C   UNL     1       3.623  -0.275   0.000  1.00  0.00     0.086 A 
HETATM    7  O   UNL     1       4.922   1.976   0.000  1.00  0.00    -0.223 OA
HETATM    8  O   UNL     1       2.324  -2.525   0.000  1.00  0.00    -0.195 OA
ENDROOT
BRANCH   3   9
HETATM    9  C   UNL     1       4.922  -4.024   0.000  1.00  0.00     0.046 C 
BRANCH   9  10
HETATM   10  C   UNL     1       6.221  -4.774   0.000  1.00  0.00    -0.034 A 
HETATM   11  C   UNL     1       7.520  -4.024   0.000  1.00  0.00     0.023 A 
HETATM   12  C   UNL     1       8.819  -4.774   0.000  1.00  0.00     0.005 A 
HETATM   13  C   UNL     1       8.819  -6.274   0.000  1.00  0.00     0.006 A 
HETATM   14  C   UNL     1       7.520  -7.024   0.000  1.00  0.00     0.037 A 
HETATM   15  C   UNL     1       6.221  -6.274   0.000  1.00  0.00     0.028 A 
HETATM   16 CL   UNL     1       4.922  -7.024   0.000  1.00  0.00    -0.088 Cl
ENDBRANCH   9  10
ENDBRANCH   3   9
TORSDOF 2
