REMARK  1 active torsions:
REMARK  status: ('A' for Active; 'I' for Inactive)
REMARK    1  A    between atoms: C_10  and  C_11 
ROOT
HETATM    1  C   UNL     1      -1.674   5.899   0.000  1.00  0.00     0.005 A 
HETATM    2  C   UNL     1      -1.674   4.399   0.000  1.00  0.00     0.005 A 
HETATM    3  C   UNL     1      -0.375   6.649   0.000  1.00  0.00     0.028 A 
HETATM    4  C   UNL     1      -0.375   3.650   0.000  1.00  0.00     0.028 A 
HETATM    5  C   UNL     1       0.924   5.899   0.000  1.00  0.00     0.001 A 
HETATM    6  C   UNL     1       0.924   4.399   0.000  1.00  0.00    -0.003 A 
HETATM    7  C   UNL     1       2.223   3.650   0.000  1.00  0.00     0.109 A 
HETATM    8  C   UNL     1       2.223   6.649   0.000  1.00  0.00     0.125 A 
HETATM    9  C   UNL     1       3.522   4.399   0.000  1.00  0.00     0.084 A 
HETATM   10  C   UNL     1       3.522   5.899   0.000  1.00  0.00     0.031 A 
HETATM   11  O   UNL     1       2.223   8.149   0.000  1.00  0.00    -0.191 OA
HETATM   12  O   UNL     1       2.223   2.150   0.000  1.00  0.00    -0.195 OA
ENDROOT
BRANCH  10  13
HETATM   13  C   UNL     1       4.821   6.649   0.000  1.00  0.00     0.107 C 
HETATM   14  O   UNL     1       4.821   8.149   0.000  1.00  0.00    -0.195 OA
HETATM   15  C   UNL     1       6.120   5.899   0.000  1.00  0.00     0.061 C 
ENDBRANCH  10  13
TORSDOF 1
