REMARK  3 active torsions:
REMARK  status: ('A' for Active; 'I' for Inactive)
REMARK    1  A    between atoms: N_1  and  C_7 
REMARK    2  A    between atoms: N_1  and  C_18 
REMARK    3  A    between atoms: C_8  and  C_18 
ROOT
HETATM    1  C   UNL     1      -4.172  -4.774   0.000  1.00  0.00     0.019 A 
HETATM    2  C   UNL     1      -2.873  -5.524   0.000  1.00  0.00     0.106 A 
HETATM    3  C   UNL     1      -5.471  -5.524   0.000  1.00  0.00    -0.030 A 
HETATM    4  C   UNL     1      -6.770  -4.774   0.000  1.00  0.00     0.025 A 
HETATM    5  C   UNL     1      -8.069  -5.524   0.000  1.00  0.00     0.005 A 
HETATM    6  C   UNL     1      -2.873  -7.024   0.000  1.00  0.00     0.058 A 
HETATM    7  C   UNL     1      -5.471  -7.024   0.000  1.00  0.00    -0.048 A 
HETATM    8  C   UNL     1      -8.069  -7.024   0.000  1.00  0.00     0.005 A 
HETATM    9  C   UNL     1      -4.172  -7.774   0.000  1.00  0.00     0.029 A 
HETATM   10  C   UNL     1      -6.770  -7.774   0.000  1.00  0.00     0.022 A 
HETATM   11  O   UNL     1      -1.574  -4.774   0.000  1.00  0.00    -0.195 OA
ENDROOT
BRANCH   1  12
HETATM   12  C   UNL     1      -4.172  -3.275   0.000  1.00  0.00     0.153 C 
BRANCH  12  13
HETATM   13  N   UNL     1      -2.873  -2.525   0.000  1.00  0.00    -0.268 NA
BRANCH  13  14
HETATM   14  C   UNL     1      -2.873  -0.050   0.000  1.00  0.00     0.075 A 
HETATM   15  C   UNL     1      -4.172   0.701   0.000  1.00  0.00     0.121 A 
HETATM   16  C   UNL     1      -4.172   2.200   0.000  1.00  0.00     0.056 A 
HETATM   17  O   UNL     1      -5.471  -0.050   0.000  1.00  0.00    -0.194 OA
HETATM   18  C   UNL     1      -2.873   2.950   0.000  1.00  0.00     0.007 A 
HETATM   19  C   UNL     1      -1.574   2.200   0.000  1.00  0.00     0.007 A 
HETATM   20  C   UNL     1      -1.574   0.701   0.000  1.00  0.00     0.047 A 
ENDBRANCH  13  14
ENDBRANCH  12  13
ENDBRANCH   1  12
TORSDOF 3
