REMARK  3 active torsions:
REMARK  status: ('A' for Active; 'I' for Inactive)
REMARK    1  A    between atoms: C_11  and  C_12 
REMARK    2  A    between atoms: C_13  and  C_14 
REMARK    3  A    between atoms: C_19  and  C_20 
ROOT
HETATM    1  N   UNL     1      -8.957  -5.250   0.000  1.00  0.00    -0.205 NA
HETATM    2  N   UNL     1      -7.658  -3.000   0.000  1.00  0.00    -0.205 NA
HETATM    3  N   UNL     1      -6.359  -5.250   0.000  1.00  0.00    -0.205 NA
HETATM    4  C   UNL     1      -6.359  -3.750   0.000  1.00  0.00     0.179 A 
HETATM    5  C   UNL     1      -8.957  -3.750   0.000  1.00  0.00     0.179 A 
HETATM    6  C   UNL     1      -7.658  -6.000   0.000  1.00  0.00     0.179 A 
ENDROOT
BRANCH   4   7
HETATM    7  C   UNL     1      -5.060  -3.000   0.000  1.00  0.00     0.089 A 
HETATM    8  N   UNL     1      -5.060  -1.500   0.000  1.00  0.00    -0.272 NA
HETATM    9  C   UNL     1      -3.761  -0.750   0.000  1.00  0.00     0.125 A 
HETATM   10  C   UNL     1      -2.462  -1.500   0.000  1.00  0.00     0.027 A 
HETATM   11  C   UNL     1      -2.462  -3.000   0.000  1.00  0.00     0.008 A 
HETATM   12  C   UNL     1      -3.761  -3.750   0.000  1.00  0.00     0.049 A 
ENDBRANCH   4   7
BRANCH   5  13
HETATM   13  C   UNL     1     -10.256  -3.000   0.000  1.00  0.00     0.089 A 
HETATM   14  N   UNL     1     -10.256  -1.500   0.000  1.00  0.00    -0.272 NA
HETATM   15  C   UNL     1     -11.555  -0.750   0.000  1.00  0.00     0.125 A 
HETATM   16  C   UNL     1     -12.854  -1.500   0.000  1.00  0.00     0.027 A 
HETATM   17  C   UNL     1     -12.854  -3.000   0.000  1.00  0.00     0.008 A 
HETATM   18  C   UNL     1     -11.555  -3.750   0.000  1.00  0.00     0.049 A 
ENDBRANCH   5  13
BRANCH   6  19
HETATM   19  C   UNL     1      -7.658  -7.500   0.000  1.00  0.00     0.089 A 
HETATM   20  N   UNL     1      -6.359  -8.250   0.000  1.00  0.00    -0.272 NA
HETATM   21  C   UNL     1      -6.359  -9.750   0.000  1.00  0.00     0.125 A 
HETATM   22  C   UNL     1      -7.658 -10.500   0.000  1.00  0.00     0.027 A 
HETATM   23  C   UNL     1      -8.957  -9.750   0.000  1.00  0.00     0.008 A 
HETATM   24  C   UNL     1      -8.957  -8.250   0.000  1.00  0.00     0.049 A 
ENDBRANCH   6  19
TORSDOF 3
