REMARK  5 active torsions:
REMARK  status: ('A' for Active; 'I' for Inactive)
REMARK    1  A    between atoms: C_2  and  C_13 
REMARK    2  A    between atoms: C_3  and  N_18 
REMARK    3  A    between atoms: C4*_8  and  C5*_21 
REMARK    4  A    between atoms: C1*_11  and  N_18 
REMARK    5  A    between atoms: C_13  and  O_15 
ROOT
HETATM    1  C   UNL     1      -1.009  -7.747   0.000  1.00  0.00     0.045 A 
HETATM    2  C   UNL     1       0.290  -8.497   0.000  1.00  0.00     0.066 A 
HETATM    3  C   UNL     1      -2.308  -8.497   0.000  1.00  0.00     0.053 A 
HETATM    4  C   UNL     1       0.290  -9.997   0.000  1.00  0.00     0.067 A 
HETATM    5  C   UNL     1      -2.308  -9.997   0.000  1.00  0.00    -0.047 A 
HETATM    6  C   UNL     1      -1.009 -10.747   0.000  1.00  0.00    -0.045 A 
HETATM    7  C   UNL     1      -3.607 -10.747   0.000  1.00  0.00     0.026 C 
HETATM    8  C   UNL     1      -1.009 -12.247   0.000  1.00  0.00     0.026 C 
ENDROOT
BRANCH   2   9
HETATM    9  N   UNL     1       1.589  -7.747   0.000  1.00  0.00    -0.225 NA
BRANCH   9  10
HETATM   10  C1* UNL     1       2.888  -8.497   0.000  1.00  0.00     0.210 A 
HETATM   11  O4* UNL     1       3.045  -9.989   0.000  1.00  0.00    -0.287 OA
HETATM   12  C4* UNL     1       4.512 -10.301   0.000  1.00  0.00     0.140 A 
HETATM   13  C3* UNL     1       5.262  -9.002   0.000  1.00  0.00     0.181 A 
HETATM   14  C2* UNL     1       4.259  -7.887   0.000  1.00  0.00     0.199 A 
HETATM   15  O3* UNL     1       6.754  -8.845   0.000  1.00  0.00    -0.186 OA
HETATM   16  O2* UNL     1       4.570  -6.420   0.000  1.00  0.00    -0.184 OA
BRANCH  12  17
HETATM   17  C5* UNL     1       5.122 -11.671   0.000  1.00  0.00     0.235 C 
HETATM   18  O5* UNL     1       6.614 -11.828   0.000  1.00  0.00    -0.213 OA
ENDBRANCH  12  17
ENDBRANCH   9  10
ENDBRANCH   2   9
BRANCH   1  19
HETATM   19  C   UNL     1      -1.009  -6.247   0.000  1.00  0.00     0.226 C 
HETATM   20  O   UNL     1       0.290  -5.497   0.000  1.00  0.00    -0.164 OA
BRANCH  19  21
HETATM   21  O   UNL     1      -2.308  -5.497   0.000  1.00  0.00    -0.306 OA
HETATM   22  C   UNL     1      -3.607  -6.247   0.000  1.00  0.00     0.184 C 
ENDBRANCH  19  21
ENDBRANCH   1  19
TORSDOF 5
