REMARK  0 active torsions:
REMARK  status: ('A' for Active; 'I' for Inactive)
ROOT
HETATM    1  H   UNL     1       2.973   1.375   0.000  1.00  0.00     0.168 HD
HETATM    2  N   UNL     1       4.272   0.625   0.000  1.00  0.00    -0.335 N 
HETATM    3  S   UNL     1       5.571   2.876   0.000  1.00  0.00    -0.040 SA
HETATM    4  N   UNL     1       6.870   0.625   0.000  1.00  0.00    -0.311 N 
HETATM    5  H   UNL     1       8.169   1.375   0.000  1.00  0.00     0.170 HD
HETATM    6  O   UNL     1       8.169  -1.625   0.000  1.00  0.00    -0.173 OA
HETATM    7  C   UNL     1       5.571   1.375   0.000  1.00  0.00     0.178 A 
HETATM    8  C   UNL     1       6.870  -0.875   0.000  1.00  0.00     0.190 A 
HETATM    9  C   UNL     1       5.571  -1.625   0.000  1.00  0.00     0.036 A 
HETATM   10  C   UNL     1       4.272  -0.875   0.000  1.00  0.00     0.035 A 
HETATM   11  C   UNL     1       7.325  -4.662   0.000  1.00  0.00    -0.001 A 
HETATM   12  C   UNL     1       7.325  -6.162   0.000  1.00  0.00    -0.032 A 
HETATM   13  C   UNL     1       8.624  -3.912   0.000  1.00  0.00     0.105 A 
HETATM   14  C   UNL     1       6.026  -6.912   0.000  1.00  0.00     0.025 A 
HETATM   15  C   UNL     1       6.026  -8.412   0.000  1.00  0.00     0.005 A 
HETATM   16  C   UNL     1       9.923  -4.662   0.000  1.00  0.00     0.058 A 
HETATM   17  C   UNL     1       8.624  -6.912   0.000  1.00  0.00    -0.048 A 
HETATM   18  C   UNL     1       7.325  -9.162   0.000  1.00  0.00     0.005 A 
HETATM   19  C   UNL     1       9.923  -6.162   0.000  1.00  0.00     0.029 A 
HETATM   20  C   UNL     1       8.624  -8.412   0.000  1.00  0.00     0.022 A 
HETATM   21  C   UNL     1       2.973  -1.625   0.000  1.00  0.00     0.050 C 
HETATM   22  C   UNL     1       5.571  -3.650   0.000  1.00  0.00     0.059 A 
HETATM   23  O   UNL     1       8.624  -2.412   0.000  1.00  0.00    -0.194 OA
ENDROOT
TORSDOF 0
