REMARK  1 active torsions:
REMARK  status: ('A' for Active; 'I' for Inactive)
REMARK    1  A    between atoms: C_11  and  C_13 
ROOT
HETATM    1  O   UNL     1      -2.973  -6.649   0.000  1.00  0.00    -0.294 OA
HETATM    2  N   UNL     1      -1.674  -8.899   0.000  1.00  0.00    -0.207 NA
HETATM    3  N   UNL     1       0.924  -8.899   0.000  1.00  0.00    -0.231 NA
HETATM    4  C   UNL     1      -4.604  -3.610   0.000  1.00  0.00     0.014 A 
HETATM    5  C   UNL     1      -3.455  -2.646   0.000  1.00  0.00     0.054 A 
HETATM    6  C   UNL     1      -4.343  -5.088   0.000  1.00  0.00     0.052 A 
HETATM    7  C   UNL     1      -2.045  -3.159   0.000  1.00  0.00     0.106 A 
HETATM    8  C   UNL     1      -2.934  -5.601   0.000  1.00  0.00     0.077 A 
HETATM    9  C   UNL     1      -1.784  -4.636   0.000  1.00  0.00     0.022 A 
HETATM   10  C   UNL     1      -0.375  -6.649   0.000  1.00  0.00     0.041 A 
HETATM   11  C   UNL     1       0.924  -7.399   0.000  1.00  0.00     0.077 A 
HETATM   12  C   UNL     1      -1.674  -7.399   0.000  1.00  0.00     0.181 A 
HETATM   13  C   UNL     1      -0.375  -9.649   0.000  1.00  0.00     0.142 A 
HETATM   14  C   UNL     1      -0.375  -5.149   0.000  1.00  0.00     0.061 A 
HETATM   15  C   UNL     1      -0.375 -11.149   0.000  1.00  0.00     0.074 C 
HETATM   16  O   UNL     1      -0.896  -2.195   0.000  1.00  0.00    -0.195 OA
ENDROOT
BRANCH  11  17
HETATM   17  C   UNL     1       2.223  -6.649   0.000  1.00  0.00    -0.020 A 
HETATM   18  C   UNL     1       3.522  -7.399   0.000  1.00  0.00    -0.004 A 
HETATM   19  C   UNL     1       4.821  -6.649   0.000  1.00  0.00     0.014 A 
HETATM   20  C   UNL     1       4.821  -5.149   0.000  1.00  0.00     0.004 A 
HETATM   21  C   UNL     1       3.522  -4.399   0.000  1.00  0.00     0.005 A 
HETATM   22  C   UNL     1       2.223  -5.149   0.000  1.00  0.00     0.027 A 
ENDBRANCH  11  17
TORSDOF 1
