REMARK  4 active torsions:
REMARK  status: ('A' for Active; 'I' for Inactive)
REMARK    1  A    between atoms: C_4  and  C_15 
REMARK    2  A    between atoms: C_15  and  C_16 
REMARK    3  A    between atoms: C_16  and  C_17 
REMARK    4  A    between atoms: C_17  and  C_18 
ROOT
HETATM    1  H   UNL     1      -2.041  -5.014   0.000  1.00  0.00     0.166 HD
HETATM    2  N   UNL     1      -1.577  -6.440   0.000  1.00  0.00    -0.356 N 
HETATM    3  N   UNL     1       2.447  -6.904   0.000  1.00  0.00    -0.273 NA
HETATM    4  C   UNL     1       1.148  -6.154   0.000  1.00  0.00     0.069 A 
HETATM    5  C   UNL     1      -0.151  -6.904   0.000  1.00  0.00     0.066 A 
HETATM    6  C   UNL     1      -0.151  -8.404   0.000  1.00  0.00    -0.006 A 
HETATM    7  C   UNL     1       1.148  -9.154   0.000  1.00  0.00     0.054 A 
HETATM    8  C   UNL     1       2.447  -8.404   0.000  1.00  0.00     0.130 A 
HETATM    9  C   UNL     1      -1.577  -8.867   0.000  1.00  0.00    -0.013 A 
HETATM   10  C   UNL     1      -3.951  -7.811   0.000  1.00  0.00     0.043 A 
HETATM   11  C   UNL     1      -2.459  -7.654   0.000  1.00  0.00     0.029 A 
HETATM   12  C   UNL     1      -4.561  -9.181   0.000  1.00  0.00     0.007 A 
HETATM   13  C   UNL     1      -3.679 -10.395   0.000  1.00  0.00     0.005 A 
HETATM   14  C   UNL     1      -2.188 -10.238   0.000  1.00  0.00     0.027 A 
ENDROOT
BRANCH   4  15
HETATM   15  C   UNL     1       1.148  -4.654   0.000  1.00  0.00     0.047 C 
BRANCH  15  16
HETATM   16  C   UNL     1       2.447  -3.904   0.000  1.00  0.00     0.009 C 
BRANCH  16  17
HETATM   17  C   UNL     1       3.746  -4.654   0.000  1.00  0.00     0.036 C 
BRANCH  17  18
HETATM   18  C   UNL     1       5.045  -3.904   0.000  1.00  0.00     0.182 C 
HETATM   19  O   UNL     1       6.344  -4.654   0.000  1.00  0.00    -0.221 OA
ENDBRANCH  17  18
ENDBRANCH  16  17
ENDBRANCH  15  16
ENDBRANCH   4  15
TORSDOF 4
