REMARK  0 active torsions:
REMARK  status: ('A' for Active; 'I' for Inactive)
ROOT
HETATM    1  N   UNL     1      -8.254  -3.000   0.000  1.00  0.00    -0.363 N 
HETATM    2  O   UNL     1      -1.632  -1.036   0.000  1.00  0.00    -0.304 OA
HETATM    3  O   UNL     1      -1.632  -3.463   0.000  1.00  0.00    -0.304 OA
HETATM    4  C   UNL     1      -4.357  -0.750   0.000  1.00  0.00     0.074 A 
HETATM    5  C   UNL     1      -5.656  -1.500   0.000  1.00  0.00    -0.042 A 
HETATM    6  C   UNL     1      -3.058  -1.500   0.000  1.00  0.00     0.097 A 
HETATM    7  C   UNL     1      -6.955  -0.750   0.000  1.00  0.00     0.046 A 
HETATM    8  C   UNL     1      -8.254  -1.500   0.000  1.00  0.00     0.102 A 
HETATM    9  C   UNL     1      -3.058  -3.000   0.000  1.00  0.00     0.097 A 
HETATM   10  C   UNL     1      -5.656  -3.000   0.000  1.00  0.00    -0.023 A 
HETATM   11  C   UNL     1      -4.357  -3.750   0.000  1.00  0.00     0.076 A 
HETATM   12  C   UNL     1      -6.955  -3.750   0.000  1.00  0.00     0.120 A 
HETATM   13  C   UNL     1      -0.750  -2.250   0.000  1.00  0.00     0.303 A 
HETATM   14  C   UNL     1      -9.553  -3.750   0.000  1.00  0.00     0.121 C 
ENDROOT
TORSDOF 0
