REMARK  2 active torsions:
REMARK  status: ('A' for Active; 'I' for Inactive)
REMARK    1  A    between atoms: O_7  and  C_12 
REMARK    2  A    between atoms: O_7  and  C_17 
ROOT
HETATM    1  O   UNL     1      -1.024   3.275   0.000  1.00  0.00    -0.150 OA
HETATM    2  N   UNL     1       0.275   5.524   0.000  1.00  0.00    -0.268 N 
HETATM    3  N   UNL     1       1.574   3.275   0.000  1.00  0.00    -0.275 N 
HETATM    4  O   UNL     1       1.574   7.774   0.000  1.00  0.00    -0.169 OA
HETATM    5  N   UNL     1       4.299   5.988   0.000  1.00  0.00    -0.286 N 
HETATM    6  N   UNL     1       4.299   3.561   0.000  1.00  0.00    -0.188 NA
HETATM    7  C   UNL     1       1.574   6.274   0.000  1.00  0.00     0.216 A 
HETATM    8  C   UNL     1       2.873   5.524   0.000  1.00  0.00     0.140 A 
HETATM    9  C   UNL     1       2.873   4.024   0.000  1.00  0.00     0.170 A 
HETATM   10  C   UNL     1       5.181   4.774   0.000  1.00  0.00     0.253 A 
HETATM   11  C   UNL     1       0.275   4.024   0.000  1.00  0.00     0.266 A 
HETATM   12  C   UNL     1      -1.024   6.274   0.000  1.00  0.00     0.136 C 
HETATM   13  C   UNL     1       1.574   1.774   0.000  1.00  0.00     0.136 C 
HETATM   14  C   UNL     1       4.763   7.415   0.000  1.00  0.00     0.134 C 
ENDROOT
BRANCH  10  15
HETATM   15  O   UNL     1       6.681   4.774   0.000  1.00  0.00    -0.304 OA
BRANCH  15  16
HETATM   16  C   UNL     1       7.431   6.074   0.000  1.00  0.00     0.124 A 
HETATM   17  C   UNL     1       6.681   7.373   0.000  1.00  0.00     0.030 A 
HETATM   18  C   UNL     1       7.431   8.672   0.000  1.00  0.00     0.003 A 
HETATM   19  C   UNL     1       8.931   8.672   0.000  1.00  0.00     0.000 A 
HETATM   20  C   UNL     1       9.681   7.373   0.000  1.00  0.00     0.003 A 
HETATM   21  C   UNL     1       8.931   6.074   0.000  1.00  0.00     0.030 A 
ENDBRANCH  15  16
ENDBRANCH  10  15
TORSDOF 2
