REMARK  5 active torsions:
REMARK  status: ('A' for Active; 'I' for Inactive)
REMARK    1  A    between atoms: C_4  and  C_20 
REMARK    2  A    between atoms: C_10  and  C_19 
REMARK    3  A    between atoms: C_12  and  N_17 
REMARK    4  A    between atoms: C_14  and  C_15 
REMARK       I    between atoms: C_15  and  N_17 
REMARK    5  A    between atoms: C_19  and  C_20 
ROOT
HETATM    1  C   UNL     1      -4.922  -5.524   0.000  1.00  0.00     0.006 A 
HETATM    2  C   UNL     1      -6.221  -4.774   0.000  1.00  0.00     0.042 A 
HETATM    3  C   UNL     1      -4.922  -7.024   0.000  1.00  0.00     0.001 A 
HETATM    4  C   UNL     1      -6.221  -7.774   0.000  1.00  0.00     0.006 A 
HETATM    5  C   UNL     1      -7.520  -5.524   0.000  1.00  0.00     0.048 A 
HETATM    6  C   UNL     1      -7.520  -7.024   0.000  1.00  0.00     0.042 A 
ENDROOT
BRANCH   3   7
HETATM    7  C   UNL     1      -3.623  -7.774   0.000  1.00  0.00     0.000 C 
BRANCH   7   8
HETATM    8  C   UNL     1      -3.623  -9.274   0.000  1.00  0.00     0.000 C 
BRANCH   8   9
HETATM    9  C   UNL     1      -2.324 -10.024   0.000  1.00  0.00     0.000 A 
HETATM   10  C   UNL     1      -1.024  -9.274   0.000  1.00  0.00     0.000 A 
HETATM   11  C   UNL     1       0.275 -10.024   0.000  1.00  0.00     0.000 A 
HETATM   12  C   UNL     1       0.275 -11.524   0.000  1.00  0.00     0.000 A 
HETATM   13  C   UNL     1      -1.024 -12.274   0.000  1.00  0.00     0.000 A 
HETATM   14  C   UNL     1      -2.324 -11.524   0.000  1.00  0.00     0.000 A 
ENDBRANCH   8   9
ENDBRANCH   7   8
ENDBRANCH   3   7
BRANCH   5  15
HETATM   15  N   UNL     1      -8.819  -4.774   0.000  1.00  0.00    -0.169 N 
HETATM   16  C   UNL     1     -10.118  -5.524   0.000  1.00  0.00     0.232 C 
HETATM   17  O   UNL     1     -11.417  -4.774   0.000  1.00  0.00    -0.171 OA
HETATM   18  O   UNL     1      -8.819  -3.275   0.000  1.00  0.00    -0.079 OA
BRANCH  16  19
HETATM   19  C   UNL     1     -10.118  -7.024   0.000  1.00  0.00     0.267 C 
HETATM   20  F   UNL     1     -11.417  -7.774   0.000  1.00  0.00    -0.225 F 
ENDBRANCH  16  19
ENDBRANCH   5  15
TORSDOF 5
