REMARK  4 active torsions:
REMARK  status: ('A' for Active; 'I' for Inactive)
REMARK    1  A    between atoms: C_11  and  C_23 
REMARK    2  A    between atoms: C_16  and  O_21 
REMARK    3  A    between atoms: O_21  and  C_22 
REMARK    4  A    between atoms: C_22  and  C_23 
ROOT
HETATM    1  O   UNL     1       0.750   2.250   0.000  1.00  0.00    -0.150 OA
HETATM    2  N   UNL     1       2.049   4.500   0.000  1.00  0.00    -0.268 N 
HETATM    3  N   UNL     1       3.348   2.250   0.000  1.00  0.00    -0.275 N 
HETATM    4  O   UNL     1       3.348   6.750   0.000  1.00  0.00    -0.169 OA
HETATM    5  N   UNL     1       6.074   4.963   0.000  1.00  0.00    -0.286 N 
HETATM    6  N   UNL     1       6.074   2.537   0.000  1.00  0.00    -0.188 NA
HETATM    7  C   UNL     1       3.348   5.250   0.000  1.00  0.00     0.216 A 
HETATM    8  C   UNL     1       4.647   4.500   0.000  1.00  0.00     0.140 A 
HETATM    9  C   UNL     1       4.647   3.000   0.000  1.00  0.00     0.170 A 
HETATM   10  C   UNL     1       6.955   3.750   0.000  1.00  0.00     0.253 A 
HETATM   11  C   UNL     1       2.049   3.000   0.000  1.00  0.00     0.266 A 
HETATM   12  C   UNL     1       0.750   5.250   0.000  1.00  0.00     0.136 C 
HETATM   13  C   UNL     1       3.348   0.750   0.000  1.00  0.00     0.136 C 
HETATM   14  C   UNL     1       6.537   6.390   0.000  1.00  0.00     0.134 C 
ENDROOT
BRANCH  10  15
HETATM   15  O   UNL     1       8.455   3.750   0.000  1.00  0.00    -0.301 OA
BRANCH  15  16
HETATM   16  C   UNL     1       9.205   5.049   0.000  1.00  0.00     0.152 C 
BRANCH  16  17
HETATM   17  C   UNL     1      10.705   5.049   0.000  1.00  0.00     0.033 C 
BRANCH  17  18
HETATM   18  C   UNL     1      11.455   3.750   0.000  1.00  0.00     0.003 A 
HETATM   19  C   UNL     1      12.955   3.750   0.000  1.00  0.00     0.000 A 
HETATM   20  C   UNL     1      13.705   2.451   0.000  1.00  0.00     0.000 A 
HETATM   21  C   UNL     1      12.955   1.152   0.000  1.00  0.00     0.000 A 
HETATM   22  C   UNL     1      11.455   1.152   0.000  1.00  0.00     0.000 A 
HETATM   23  C   UNL     1      10.705   2.451   0.000  1.00  0.00     0.000 A 
ENDBRANCH  17  18
ENDBRANCH  16  17
ENDBRANCH  15  16
ENDBRANCH  10  15
TORSDOF 4
