REMARK  0 active torsions:
REMARK  status: ('A' for Active; 'I' for Inactive)
ROOT
HETATM    1  N   UNL     1      -5.946  -2.250   0.000  1.00  0.00    -0.192 N 
HETATM    2  H   UNL     1      -5.946  -0.750   0.000  1.00  0.00     0.184 HD
HETATM    3  O   UNL     1      -5.946  -6.750   0.000  1.00  0.00    -0.171 OA
HETATM    4  N   UNL     1      -4.647  -4.500   0.000  1.00  0.00    -0.119 N 
HETATM    5  C   UNL     1      -2.049  -3.000   0.000  1.00  0.00     0.234 A 
HETATM    6  C   UNL     1      -7.245  -3.000   0.000  1.00  0.00     0.050 A 
HETATM    7  C   UNL     1      -7.245  -4.500   0.000  1.00  0.00     0.033 A 
HETATM    8  C   UNL     1      -5.946  -5.250   0.000  1.00  0.00     0.208 A 
HETATM    9  C   UNL     1      -4.647  -3.000   0.000  1.00  0.00     0.714 A 
HETATM   10  C   UNL     1      -8.544  -2.250   0.000  1.00  0.00     0.050 C 
HETATM   11  C   UNL     1      -8.544  -5.250   0.000  1.00  0.00     0.036 C 
HETATM   12  N   UNL     1      -3.348  -2.250   0.000  1.00  0.00    -0.032 NA
HETATM   13  N   UNL     1      -0.750  -2.250   0.000  1.00  0.00    -0.061 NA
HETATM   14  N   UNL     1      -2.049  -4.500   0.000  1.00  0.00    -0.300 N 
HETATM   15  C   UNL     1      -0.750  -5.250   0.000  1.00  0.00     0.130 C 
HETATM   16  C   UNL     1      -3.348  -5.250   0.000  1.00  0.00     0.236 A 
ENDROOT
TORSDOF 0
