REMARK  2 active torsions:
REMARK  status: ('A' for Active; 'I' for Inactive)
REMARK    1  A    between atoms: C_1  and  C_4 
REMARK    2  A    between atoms: C_1  and  N_9 
ROOT
HETATM    1  N   UNL     1      -1.573  -4.774   0.000  1.00  0.00    -0.171 NA
HETATM    2  C   UNL     1      -0.275  -4.024   0.000  1.00  0.00     0.125 C 
HETATM    3  N   UNL     1       1.024  -3.275   0.000  1.00  0.00    -0.074 N 
ENDROOT
BRANCH   1   4
HETATM    4  C   UNL     1      -2.873  -4.024   0.000  1.00  0.00     0.153 C 
HETATM    5  N   UNL     1      -2.873  -2.525   0.000  1.00  0.00    -0.080 NA
BRANCH   4   6
HETATM    6  C   UNL     1      -4.172  -4.774   0.000  1.00  0.00    -0.012 A 
HETATM    7  C   UNL     1      -5.471  -4.024   0.000  1.00  0.00     0.025 A 
HETATM    8  C   UNL     1      -6.770  -4.774   0.000  1.00  0.00     0.004 A 
HETATM    9  C   UNL     1      -6.770  -6.274   0.000  1.00  0.00     0.001 A 
HETATM   10  C   UNL     1      -5.471  -7.024   0.000  1.00  0.00     0.004 A 
HETATM   11  C   UNL     1      -4.172  -6.274   0.000  1.00  0.00     0.025 A 
ENDBRANCH   4   6
ENDBRANCH   1   4
TORSDOF 2
