REMARK  5 active torsions:
REMARK  status: ('A' for Active; 'I' for Inactive)
REMARK    1  A    between atoms: N_1  and  C_16 
REMARK    2  A    between atoms: N_1  and  N_2 
REMARK    3  A    between atoms: N_2  and  C_7 
REMARK    4  A    between atoms: N_5  and  C_10 
REMARK    5  A    between atoms: C_19  and  S_22 
ROOT
HETATM    1  O   UNL     1      -4.003  -5.524   0.000  1.00  0.00    -0.167 OA
HETATM    2  N   UNL     1      -6.332  -8.630   0.000  1.00  0.00    -0.167 NA
HETATM    3  N   UNL     1      -4.961  -8.020   0.000  1.00  0.00    -0.213 N 
HETATM    4  C   UNL     1      -5.118  -6.528   0.000  1.00  0.00     0.234 A 
HETATM    5  C   UNL     1      -6.585  -6.216   0.000  1.00  0.00     0.162 A 
HETATM    6  C   UNL     1      -7.335  -7.515   0.000  1.00  0.00     0.102 A 
HETATM    7  C   UNL     1      -8.827  -7.672   0.000  1.00  0.00     0.056 C 
ENDROOT
BRANCH   5   8
HETATM    8  N   UNL     1      -7.195  -4.846   0.000  1.00  0.00    -0.144 NA
BRANCH   8   9
HETATM    9  N   UNL     1      -6.314  -3.632   0.000  1.00  0.00    -0.157 NA
BRANCH   9  10
HETATM   10  C   UNL     1      -6.924  -2.262   0.000  1.00  0.00     0.058 A 
HETATM   11  C   UNL     1      -6.042  -1.048   0.000  1.00  0.00     0.044 A 
HETATM   12  C   UNL     1      -6.652   0.322   0.000  1.00  0.00     0.024 A 
HETATM   13  C   UNL     1      -8.144   0.479   0.000  1.00  0.00     0.132 A 
HETATM   14  C   UNL     1      -9.026  -0.735   0.000  1.00  0.00     0.024 A 
HETATM   15  C   UNL     1      -8.416  -2.105   0.000  1.00  0.00     0.044 A 
BRANCH  13  16
HETATM   16  S   UNL     1      -8.754   1.849   0.000  1.00  0.00     0.281 S 
HETATM   17  N   UNL     1      -9.364   3.220   0.000  1.00  0.00    -0.047 N 
HETATM   18  O   UNL     1      -7.384   2.459   0.000  1.00  0.00    -0.201 OA
HETATM   19  O   UNL     1     -10.124   1.239   0.000  1.00  0.00    -0.201 OA
ENDBRANCH  13  16
ENDBRANCH   9  10
ENDBRANCH   8   9
ENDBRANCH   5   8
BRANCH   3  20
HETATM   20  C   UNL     1      -3.662  -8.770   0.000  1.00  0.00     0.041 A 
HETATM   21  C   UNL     1      -2.363  -8.020   0.000  1.00  0.00     0.042 A 
HETATM   22  C   UNL     1      -1.064  -8.770   0.000  1.00  0.00     0.006 A 
HETATM   23  C   UNL     1      -1.064 -10.270   0.000  1.00  0.00     0.001 A 
HETATM   24  C   UNL     1      -2.363 -11.020   0.000  1.00  0.00     0.006 A 
HETATM   25  C   UNL     1      -3.662 -10.270   0.000  1.00  0.00     0.042 A 
ENDBRANCH   3  20
TORSDOF 5
