REMARK  1 active torsions:
REMARK  status: ('A' for Active; 'I' for Inactive)
REMARK    1  A    between atoms: C_1  and  C_11 
ROOT
HETATM    1  C   UNL     1       2.049  -5.250   0.000  1.00  0.00     0.158 A 
HETATM    2  N   UNL     1       0.750  -6.000   0.000  1.00  0.00    -0.248 NA
HETATM    3  C   UNL     1       3.348  -7.500   0.000  1.00  0.00     0.063 A 
HETATM    4  C   UNL     1       2.049  -8.250   0.000  1.00  0.00    -0.006 A 
HETATM    5  C   UNL     1       4.647  -8.250   0.000  1.00  0.00     0.046 A 
HETATM    6  C   UNL     1       4.647  -9.750   0.000  1.00  0.00     0.007 A 
HETATM    7  C   UNL     1       2.049  -9.750   0.000  1.00  0.00     0.025 A 
HETATM    8  C   UNL     1       3.348 -10.500   0.000  1.00  0.00     0.005 A 
HETATM    9  N   UNL     1       3.348  -6.000   0.000  1.00  0.00    -0.173 N 
HETATM   10  O   UNL     1       4.647  -5.250   0.000  1.00  0.00    -0.079 OA
HETATM   11  C   UNL     1       0.750  -7.500   0.000  1.00  0.00     0.151 A 
ENDROOT
BRANCH   1  12
HETATM   12  C   UNL     1       2.049  -3.750   0.000  1.00  0.00    -0.008 A 
HETATM   13  C   UNL     1       3.348  -3.000   0.000  1.00  0.00     0.025 A 
HETATM   14  C   UNL     1       3.348  -1.500   0.000  1.00  0.00     0.004 A 
HETATM   15  C   UNL     1       2.049  -0.750   0.000  1.00  0.00     0.001 A 
HETATM   16  C   UNL     1       0.750  -1.500   0.000  1.00  0.00     0.004 A 
HETATM   17  C   UNL     1       0.750  -3.000   0.000  1.00  0.00     0.025 A 
ENDBRANCH   1  12
TORSDOF 1
