REMARK  3 active torsions:
REMARK  status: ('A' for Active; 'I' for Inactive)
REMARK    1  A    between atoms: C_5  and  C_14 
REMARK    2  A    between atoms: C_6  and  C_13 
REMARK    3  A    between atoms: C_13  and  C_14 
ROOT
HETATM    1  C   UNL     1      -6.649   2.223   0.000  1.00  0.00     0.000 C 
ENDROOT
BRANCH   1   2
HETATM    2  C   UNL     1      -8.149   2.223   0.000  1.00  0.00     0.004 A 
HETATM    3  C   UNL     1      -8.899   3.522   0.000  1.00  0.00     0.026 A 
HETATM    4  C   UNL     1     -10.399   3.522   0.000  1.00  0.00     0.120 A 
HETATM    5  N   UNL     1     -11.149   2.223   0.000  1.00  0.00    -0.296 NA
HETATM    6  C   UNL     1     -10.399   0.924   0.000  1.00  0.00     0.120 A 
HETATM    7  C   UNL     1      -8.899   0.924   0.000  1.00  0.00     0.026 A 
ENDBRANCH   1   2
BRANCH   1   8
HETATM    8  C   UNL     1      -5.899   0.924   0.000  1.00  0.00     0.000 C 
BRANCH   8   9
HETATM    9  C   UNL     1      -4.399   0.924   0.000  1.00  0.00     0.004 A 
HETATM   10  C   UNL     1      -3.650   2.223   0.000  1.00  0.00     0.026 A 
HETATM   11  C   UNL     1      -2.150   2.223   0.000  1.00  0.00     0.120 A 
HETATM   12  N   UNL     1      -1.399   0.924   0.000  1.00  0.00    -0.296 NA
HETATM   13  C   UNL     1      -2.150  -0.375   0.000  1.00  0.00     0.120 A 
HETATM   14  C   UNL     1      -3.650  -0.375   0.000  1.00  0.00     0.026 A 
ENDBRANCH   8   9
ENDBRANCH   1   8
TORSDOF 3
