REMARK  2 active torsions:
REMARK  status: ('A' for Active; 'I' for Inactive)
REMARK    1  A    between atoms: C_3  and  C_9 
REMARK    2  A    between atoms: C_14  and  C_15 
ROOT
HETATM    1  O   UNL     1      -7.245  -0.750   0.000  1.00  0.00    -0.331 OA
HETATM    2  O   UNL     1      -7.245  -5.250   0.000  1.00  0.00    -0.193 OA
HETATM    3  C   UNL     1      -8.544  -1.500   0.000  1.00  0.00     0.161 A 
HETATM    4  C   UNL     1      -8.544  -3.000   0.000  1.00  0.00     0.089 A 
HETATM    5  C   UNL     1      -7.245  -3.750   0.000  1.00  0.00     0.135 A 
HETATM    6  C   UNL     1      -5.946  -1.500   0.000  1.00  0.00     0.119 A 
HETATM    7  C   UNL     1      -5.946  -3.000   0.000  1.00  0.00     0.143 A 
HETATM    8  C   UNL     1      -4.647  -0.750   0.000  1.00  0.00     0.157 A 
HETATM    9  O   UNL     1      -4.647  -3.750   0.000  1.00  0.00    -0.283 OA
HETATM   10  N   UNL     1      -3.348  -1.500   0.000  1.00  0.00    -0.317 N 
HETATM   11  C   UNL     1      -2.049  -0.750   0.000  1.00  0.00     0.128 C 
HETATM   12  C   UNL     1      -3.348  -3.000   0.000  1.00  0.00     0.227 A 
ENDROOT
BRANCH  12  13
HETATM   13  C   UNL     1      -2.049  -3.750   0.000  1.00  0.00     0.252 C 
HETATM   14  O   UNL     1      -0.750  -3.000   0.000  1.00  0.00    -0.641 OA
HETATM   15  O   UNL     1      -2.049  -5.250   0.000  1.00  0.00    -0.641 OA
ENDBRANCH  12  13
BRANCH   3  16
HETATM   16  C   UNL     1      -9.843  -0.750   0.000  1.00  0.00     0.213 C 
HETATM   17  O   UNL     1     -11.142  -1.500   0.000  1.00  0.00    -0.218 OA
ENDBRANCH   3  16
TORSDOF 2
