REMARK  3 active torsions:
REMARK  status: ('A' for Active; 'I' for Inactive)
REMARK    1  A    between atoms: C_15  and  N_16 
REMARK    2  A    between atoms: N_16  and  C_19 
REMARK    3  A    between atoms: O_21  and  C_22 
ROOT
HETATM    1  C   UNL     1      -5.571   2.150   0.000  1.00  0.00    -0.032 A 
HETATM    2  C   UNL     1      -4.272   1.399   0.000  1.00  0.00     0.058 A 
HETATM    3  C   UNL     1      -6.870   1.399   0.000  1.00  0.00    -0.042 A 
HETATM    4  C   UNL     1      -4.272  -0.101   0.000  1.00  0.00     0.157 A 
HETATM    5  C   UNL     1      -6.870  -0.101   0.000  1.00  0.00     0.025 A 
HETATM    6  C   UNL     1      -5.571  -0.851   0.000  1.00  0.00     0.038 A 
HETATM    7  C   UNL     1      -6.870   4.399   0.000  1.00  0.00     0.171 A 
HETATM    8  O   UNL     1      -6.870   5.899   0.000  1.00  0.00    -0.187 OA
HETATM    9  C   UNL     1      -8.169   3.650   0.000  1.00  0.00     0.094 A 
HETATM   10  C   UNL     1      -8.169   2.150   0.000  1.00  0.00     0.070 A 
HETATM   11  O   UNL     1      -5.571   3.650   0.000  1.00  0.00     0.000 OA
HETATM   12  O   UNL     1      -2.973  -0.851   0.000  1.00  0.00    -0.223 OA
ENDROOT
BRANCH   9  13
HETATM   13  N   UNL     1      -9.468   4.399   0.000  1.00  0.00    -0.207 NA
BRANCH  13  14
HETATM   14  C   UNL     1      -9.468   5.899   0.000  1.00  0.00     0.274 A 
HETATM   15  O   UNL     1      -8.255   6.781   0.000  1.00  0.00    -0.278 OA
HETATM   16  C   UNL     1      -8.718   8.208   0.000  1.00  0.00     0.094 A 
HETATM   17  C   UNL     1      -7.968   9.507   0.000  1.00  0.00     0.053 A 
HETATM   18  C   UNL     1     -10.218   8.208   0.000  1.00  0.00     0.081 A 
HETATM   19  C   UNL     1      -8.718  10.806   0.000  1.00  0.00     0.007 A 
HETATM   20  C   UNL     1     -10.218  10.806   0.000  1.00  0.00     0.007 A 
HETATM   21  C   UNL     1     -10.968   9.507   0.000  1.00  0.00     0.048 A 
HETATM   22  N   UNL     1     -10.682   6.781   0.000  1.00  0.00    -0.208 NA
ENDBRANCH  13  14
ENDBRANCH   9  13
BRANCH  11  23
HETATM   23  C   UNL     1      -4.272   4.399   0.000  1.00  0.00     0.000 C 
HETATM   24  C   UNL     1      -2.973   3.650   0.000  1.00  0.00     0.000 C 
ENDBRANCH  11  23
TORSDOF 3
