REMARK  16 active torsions:
REMARK  status: ('A' for Active; 'I' for Inactive)
REMARK    1  A    between atoms: N_2  and  C_24 
REMARK    2  A    between atoms: N_2  and  C_7 
REMARK    3  A    between atoms: O_3  and  C_6 
REMARK    4  A    between atoms: C_4  and  C_8 
REMARK    5  A    between atoms: C_7  and  C_10 
REMARK    6  A    between atoms: C_8  and  C_10 
REMARK    7  A    between atoms: C_10  and  C_13 
REMARK    8  A    between atoms: C_11  and  C_24 
REMARK    9  A    between atoms: C_12  and  C_19 
REMARK   10  A    between atoms: C_12  and  C_14 
REMARK   11  A    between atoms: C_12  and  C_24 
REMARK   12  A    between atoms: C_14  and  C_19 
REMARK   13  A    between atoms: C_17  and  C_20 
REMARK   14  A    between atoms: C_17  and  C_18 
REMARK   15  A    between atoms: C_18  and  C_21 
REMARK   16  A    between atoms: C_18  and  C_23 
ROOT
HETATM    1  O   UNL     1       0.199   1.541   0.000  1.00  0.00     0.000 OA
HETATM    2  N   UNL     1       0.451  -0.863   0.000  1.00  0.00     0.000 N 
HETATM    3  O   UNL     1       1.386   1.541   0.000  1.00  0.00     0.000 OA
HETATM    4  C   UNL     1       1.159   2.238   0.000  1.00  0.00     0.000 A 
HETATM    5  C   UNL     1       0.426   2.238   0.000  1.00  0.00     0.000 A 
HETATM    6  C   UNL     1       0.793   1.110   0.000  1.00  0.00     0.000 A 
HETATM    7  C   UNL     1       0.211   0.741   0.000  1.00  0.00     0.000 A 
HETATM    8  C   UNL     1       1.481   0.741   0.000  1.00  0.00     0.000 A 
HETATM    9  C   UNL     1       1.481   0.008   0.000  1.00  0.00     0.000 A 
HETATM   10  C   UNL     1       0.211   0.008   0.000  1.00  0.00     0.000 A 
HETATM   11  C   UNL     1       0.846  -0.358   0.000  1.00  0.00     0.000 A 
HETATM   12  C   UNL     1       0.211  -0.455   0.000  1.00  0.00     0.000 A 
HETATM   13  C   UNL     1       0.846  -1.091   0.000  1.00  0.00     0.000 A 
HETATM   14  C   UNL     1       0.506  -0.532   0.000  1.00  0.00     0.000 A 
HETATM   15  C   UNL     1       0.211  -1.458   0.000  1.00  0.00     0.000 A 
ENDROOT
BRANCH  11  16
HETATM   16  C   UNL     1       1.156  -0.674   0.000  1.00  0.00     0.000 A 
HETATM   17  C   UNL     1      -0.424  -1.091   0.000  1.00  0.00     0.000 A 
HETATM   18  C   UNL     1      -0.424  -0.358   0.000  1.00  0.00     0.000 A 
HETATM   19  C   UNL     1      -1.058  -1.458   0.000  1.00  0.00     0.000 A 
HETATM   20  C   UNL     1      -1.058   0.008   0.000  1.00  0.00     0.000 A 
HETATM   21  C   UNL     1      -1.692  -0.358   0.000  1.00  0.00     0.000 A 
HETATM   22  C   UNL     1      -1.692  -1.091   0.000  1.00  0.00     0.000 A 
HETATM   23  O   UNL     1      -2.300  -0.007   0.000  1.00  0.00     0.000 OA
HETATM   24  C   UNL     1      -2.932  -0.372   0.000  1.00  0.00     0.000 A 
ENDBRANCH  11  16
TORSDOF 16
