REMARK  1 active torsions:
REMARK  status: ('A' for Active; 'I' for Inactive)
REMARK    1  A    between atoms: C_20  and  C_28 
ROOT
HETATM    1  O   UNL     1     -10.717 -10.054   0.000  1.00  0.00    -0.195 OA
HETATM    2  O   UNL     1      -2.378  -3.877   0.000  1.00  0.00     0.000 OA
HETATM    3  O   UNL     1      -0.070  -3.127   0.000  1.00  0.00    -0.337 OA
HETATM    4  O   UNL     1       1.781  -4.472   0.000  1.00  0.00    -0.337 OA
HETATM    5  O   UNL     1       1.781  -6.899   0.000  1.00  0.00     0.000 OA
HETATM    6  C   UNL     1      -1.497  -2.663   0.000  1.00  0.00     0.177 A 
HETATM    7  C   UNL     1      -0.070  -4.627   0.000  1.00  0.00     0.150 A 
HETATM    8  C   UNL     1      -1.497  -5.090   0.000  1.00  0.00     0.051 A 
HETATM    9  C   UNL     1       0.355  -6.435   0.000  1.00  0.00     0.052 A 
HETATM   10  C   UNL     1      -0.615  -6.304   0.000  1.00  0.00     0.051 A 
HETATM   11  C   UNL     1      -2.923  -5.554   0.000  1.00  0.00     0.021 A 
HETATM   12  C   UNL     1      -4.222  -4.804   0.000  1.00  0.00     0.032 A 
HETATM   13  C   UNL     1      -5.521  -5.554   0.000  1.00  0.00     0.124 A 
HETATM   14  C   UNL     1      -1.497  -7.517   0.000  1.00  0.00     0.026 A 
HETATM   15  C   UNL     1      -2.923  -7.054   0.000  1.00  0.00    -0.052 A 
HETATM   16  C   UNL     1      -5.521  -7.054   0.000  1.00  0.00     0.075 A 
HETATM   17  C   UNL     1      -4.222  -7.804   0.000  1.00  0.00    -0.043 A 
HETATM   18  C   UNL     1      -6.820  -7.804   0.000  1.00  0.00     0.066 A 
HETATM   19  C   UNL     1      -8.119  -7.054   0.000  1.00  0.00    -0.013 A 
HETATM   20  C   UNL     1      -9.418  -7.804   0.000  1.00  0.00     0.027 A 
HETATM   21  C   UNL     1      -4.222  -9.304   0.000  1.00  0.00     0.043 A 
HETATM   22  C   UNL     1      -6.820  -9.304   0.000  1.00  0.00    -0.039 A 
HETATM   23  C   UNL     1      -9.418  -9.304   0.000  1.00  0.00     0.111 A 
HETATM   24  C   UNL     1      -5.521 -10.054   0.000  1.00  0.00    -0.047 A 
HETATM   25  C   UNL     1      -8.119 -10.054   0.000  1.00  0.00     0.076 A 
HETATM   26  C   UNL     1       2.663  -5.685   0.000  1.00  0.00     0.177 A 
HETATM   27  C   UNL     1      -6.820  -6.304   0.000  1.00  0.00     0.119 A 
HETATM   28  O   UNL     1      -6.820  -4.804   0.000  1.00  0.00    -0.356 OA
HETATM   29  C   UNL     1      -5.521 -11.554   0.000  1.00  0.00     0.026 C 
HETATM   30  C   UNL     1      -2.766  -4.062   0.000  1.00  0.00     0.011 A 
HETATM   31  C   UNL     1       0.885  -6.304   0.000  1.00  0.00     0.010 A 
ENDROOT
BRANCH  20  32
HETATM   32  C   UNL     1     -10.717  -7.054   0.000  1.00  0.00     0.210 C 
HETATM   33  O   UNL     1     -12.017  -7.804   0.000  1.00  0.00    -0.215 OA
ENDBRANCH  20  32
TORSDOF 1
