REMARK  3 active torsions:
REMARK  status: ('A' for Active; 'I' for Inactive)
REMARK    1  A    between atoms: C_9  and  N_17 
REMARK    2  A    between atoms: C_11  and  N_17 
REMARK    3  A    between atoms: N_17  and  C_18 
ROOT
HETATM    1 CL   UNL     1       2.537   2.154   0.000  1.00  0.00    -0.041 Cl
HETATM    2  N   UNL     1       4.911   1.098   0.000  1.00  0.00    -0.200 NA
HETATM    3  N   UNL     1       4.639   3.681   0.000  1.00  0.00    -0.199 NA
HETATM    4  N   UNL     1       7.013   5.052   0.000  1.00  0.00    -0.259 N 
HETATM    5  N   UNL     1       8.439   4.588   0.000  1.00  0.00    -0.115 NA
HETATM    6  C   UNL     1       4.029   2.311   0.000  1.00  0.00     0.227 A 
HETATM    7  C   UNL     1       6.131   3.838   0.000  1.00  0.00     0.158 A 
HETATM    8  C   UNL     1       7.013   2.625   0.000  1.00  0.00     0.067 A 
HETATM    9  C   UNL     1       6.402   1.254   0.000  1.00  0.00     0.146 A 
HETATM   10  C   UNL     1       8.439   3.088   0.000  1.00  0.00     0.146 A 
HETATM   11  C   UNL     1       6.549   6.478   0.000  1.00  0.00     0.149 C 
ENDROOT
BRANCH   9  12
HETATM   12  N   UNL     1       7.284   0.041   0.000  1.00  0.00    -0.320 N 
BRANCH  12  13
HETATM   13  C   UNL     1       8.776   0.198   0.000  1.00  0.00     0.016 A 
HETATM   14  C   UNL     1       9.386   1.568   0.000  1.00  0.00     0.039 A 
HETATM   15  C   UNL     1      10.878   1.725   0.000  1.00  0.00     0.006 A 
HETATM   16  C   UNL     1      11.759   0.511   0.000  1.00  0.00     0.001 A 
HETATM   17  C   UNL     1      11.149  -0.859   0.000  1.00  0.00     0.006 A 
HETATM   18  C   UNL     1       9.658  -1.016   0.000  1.00  0.00     0.039 A 
ENDBRANCH  12  13
BRANCH  12  19
HETATM   19  C   UNL     1       6.674  -1.329   0.000  1.00  0.00     0.107 C 
HETATM   20  C   UNL     1       5.182  -1.486   0.000  1.00  0.00     0.026 C 
ENDBRANCH  12  19
ENDBRANCH   9  12
TORSDOF 3
