REMARK  0 active torsions:
REMARK  status: ('A' for Active; 'I' for Inactive)
ROOT
HETATM    1  O   UNL     1       0.750   2.250   0.000  1.00  0.00    -0.148 OA
HETATM    2  N   UNL     1       2.049   4.500   0.000  1.00  0.00    -0.120 N 
HETATM    3  O   UNL     1       3.348   6.750   0.000  1.00  0.00    -0.168 OA
HETATM    4  N   UNL     1       3.348   2.250   0.000  1.00  0.00    -0.302 N 
HETATM    5  H   UNL     1       3.348   0.750   0.000  1.00  0.00     0.171 HD
HETATM    6  S   UNL     1       6.074   4.963   0.000  1.00  0.00    -0.083 SA
HETATM    7  N   UNL     1       6.074   2.537   0.000  1.00  0.00    -0.244 NA
HETATM    8  C   UNL     1       3.348   5.250   0.000  1.00  0.00     0.232 A 
HETATM    9  C   UNL     1       4.647   4.500   0.000  1.00  0.00     0.105 A 
HETATM   10  C   UNL     1       4.647   3.000   0.000  1.00  0.00     0.149 A 
HETATM   11  C   UNL     1       6.955   3.750   0.000  1.00  0.00     0.156 A 
HETATM   12  C   UNL     1       2.049   3.000   0.000  1.00  0.00     0.288 A 
HETATM   13  O   UNL     1       0.750   5.250   0.000  1.00  0.00    -0.075 OA
HETATM   14  C   UNL     1       8.455   3.750   0.000  1.00  0.00     0.039 C 
ENDROOT
TORSDOF 0
