REMARK  2 active torsions:
REMARK  status: ('A' for Active; 'I' for Inactive)
REMARK    1  A    between atoms: C_12  and  C_13 
REMARK    2  A    between atoms: C_18  and  C_20 
ROOT
HETATM    1  H   UNL     1      -2.366  -7.443   0.000  1.00  0.00     0.166 HD
HETATM    2  N   UNL     1      -0.939  -7.906   0.000  1.00  0.00    -0.355 N 
HETATM    3  C   UNL     1       0.275  -7.024   0.000  1.00  0.00     0.079 A 
HETATM    4  C   UNL     1       1.488  -7.906   0.000  1.00  0.00     0.055 A 
HETATM    5  C   UNL     1       1.024  -9.333   0.000  1.00  0.00     0.080 A 
HETATM    6  C   UNL     1      -0.475  -9.333   0.000  1.00  0.00     0.031 A 
HETATM    7  C   UNL     1       2.915  -7.443   0.000  1.00  0.00     0.019 C 
HETATM    8  N   UNL     1       4.341  -6.979   0.000  1.00  0.00    -0.096 N 
ENDROOT
BRANCH   3   9
HETATM    9  C   UNL     1       0.275  -5.524   0.000  1.00  0.00     0.087 A 
HETATM   10  N   UNL     1      -1.024  -4.774   0.000  1.00  0.00    -0.269 NA
HETATM   11  C   UNL     1      -1.024  -3.275   0.000  1.00  0.00     0.130 A 
HETATM   12  C   UNL     1       0.275  -2.525   0.000  1.00  0.00     0.048 A 
HETATM   13  C   UNL     1       1.574  -3.275   0.000  1.00  0.00    -0.045 A 
HETATM   14  C   UNL     1       2.873  -2.525   0.000  1.00  0.00     0.022 A 
HETATM   15  C   UNL     1       1.574  -4.774   0.000  1.00  0.00    -0.011 A 
HETATM   16  C   UNL     1       4.172  -3.275   0.000  1.00  0.00     0.005 A 
HETATM   17  C   UNL     1       4.172  -4.774   0.000  1.00  0.00     0.005 A 
HETATM   18  C   UNL     1       2.873  -5.524   0.000  1.00  0.00     0.027 A 
ENDBRANCH   3   9
BRANCH   6  19
HETATM   19  C   UNL     1      -1.357 -10.546   0.000  1.00  0.00    -0.032 A 
HETATM   20  C   UNL     1      -2.849 -10.389   0.000  1.00  0.00     0.023 A 
HETATM   21  C   UNL     1      -3.731 -11.603   0.000  1.00  0.00     0.004 A 
HETATM   22  C   UNL     1      -3.120 -12.973   0.000  1.00  0.00     0.001 A 
HETATM   23  C   UNL     1      -1.629 -13.130   0.000  1.00  0.00     0.004 A 
HETATM   24  C   UNL     1      -0.747 -11.917   0.000  1.00  0.00     0.023 A 
ENDBRANCH   6  19
TORSDOF 2
