REMARK  4 active torsions:
REMARK  status: ('A' for Active; 'I' for Inactive)
REMARK    1  A    between atoms: C_8  and  N_24 
REMARK    2  A    between atoms: C_15  and  N_25 
REMARK    3  A    between atoms: C_17  and  N_24 
REMARK    4  A    between atoms: C_18  and  N_25 
ROOT
HETATM    1  N   UNL     1       3.623   7.774   0.000  1.00  0.00    -0.040 NA
HETATM    2  N   UNL     1       1.024   7.774   0.000  1.00  0.00    -0.041 NA
HETATM    3  N   UNL     1      -0.090  10.278   0.000  1.00  0.00    -0.258 N 
HETATM    4  N   UNL     1       0.520  11.649   0.000  1.00  0.00    -0.115 NA
HETATM    5  C   UNL     1       1.024   9.274   0.000  1.00  0.00     0.174 A 
HETATM    6  C   UNL     1       2.324  10.024   0.000  1.00  0.00     0.070 A 
HETATM    7  C   UNL     1       3.623   9.274   0.000  1.00  0.00     0.181 A 
HETATM    8  C   UNL     1       2.012  11.492   0.000  1.00  0.00     0.147 A 
HETATM    9  C   UNL     1       2.324   7.024   0.000  1.00  0.00     0.752 A 
HETATM   10  C   UNL     1      -1.557   9.966   0.000  1.00  0.00     0.149 C 
ENDROOT
BRANCH   7  11
HETATM   11  N   UNL     1       4.922  10.024   0.000  1.00  0.00    -0.235 NA
BRANCH  11  12
HETATM   12  C   UNL     1       4.922  11.524   0.000  1.00  0.00     0.039 A 
HETATM   13  C   UNL     1       3.623  12.274   0.000  1.00  0.00     0.046 A 
HETATM   14  C   UNL     1       3.623  13.774   0.000  1.00  0.00     0.035 A 
HETATM   15  C   UNL     1       4.922  14.524   0.000  1.00  0.00    -0.009 A 
HETATM   16 BR   UNL     1       4.922  16.024   0.000  1.00  0.00    -0.058 Br
HETATM   17  C   UNL     1       6.221  13.774   0.000  1.00  0.00     0.035 A 
HETATM   18  C   UNL     1       6.221  12.274   0.000  1.00  0.00     0.046 A 
ENDBRANCH  11  12
ENDBRANCH   7  11
BRANCH   9  19
HETATM   19  N   UNL     1       2.324   5.524   0.000  1.00  0.00    -0.068 NA
BRANCH  19  20
HETATM   20  C   UNL     1       1.024   4.774   0.000  1.00  0.00     0.056 A 
HETATM   21  C   UNL     1      -0.275   5.524   0.000  1.00  0.00     0.047 A 
HETATM   22  C   UNL     1      -1.574   4.774   0.000  1.00  0.00     0.035 A 
HETATM   23  C   UNL     1      -1.574   3.275   0.000  1.00  0.00    -0.009 A 
HETATM   24 BR   UNL     1      -2.873   2.525   0.000  1.00  0.00    -0.058 Br
HETATM   25  C   UNL     1      -0.275   2.525   0.000  1.00  0.00     0.035 A 
HETATM   26  C   UNL     1       1.024   3.275   0.000  1.00  0.00     0.047 A 
ENDBRANCH  19  20
ENDBRANCH   9  19
TORSDOF 4
