REMARK  2 active torsions:
REMARK  status: ('A' for Active; 'I' for Inactive)
REMARK    1  A    between atoms: C_12  and  C_13 
REMARK    2  A    between atoms: C_16  and  C_17 
ROOT
HETATM    1  N   UNL     1       3.263  -6.132   0.000  1.00  0.00    -0.359 N 
HETATM    2  H   UNL     1       4.689  -5.668   0.000  1.00  0.00     0.165 HD
HETATM    3  C   UNL     1       2.049  -5.250   0.000  1.00  0.00     0.051 A 
HETATM    4  C   UNL     1       0.836  -6.132   0.000  1.00  0.00     0.051 A 
HETATM    5  C   UNL     1       1.299  -7.558   0.000  1.00  0.00     0.049 A 
HETATM    6  C   UNL     1       2.799  -7.558   0.000  1.00  0.00     0.026 A 
ENDROOT
BRANCH   3   7
HETATM    7  C   UNL     1       2.049  -3.750   0.000  1.00  0.00     0.083 A 
HETATM    8  N   UNL     1       0.750  -3.000   0.000  1.00  0.00    -0.270 NA
HETATM    9  C   UNL     1       0.750  -1.500   0.000  1.00  0.00     0.130 A 
HETATM   10  C   UNL     1       2.049  -0.750   0.000  1.00  0.00     0.048 A 
HETATM   11  C   UNL     1       3.348  -1.500   0.000  1.00  0.00    -0.045 A 
HETATM   12  C   UNL     1       4.647  -0.750   0.000  1.00  0.00     0.022 A 
HETATM   13  C   UNL     1       3.348  -3.000   0.000  1.00  0.00    -0.012 A 
HETATM   14  C   UNL     1       5.946  -1.500   0.000  1.00  0.00     0.005 A 
HETATM   15  C   UNL     1       5.946  -3.000   0.000  1.00  0.00     0.005 A 
HETATM   16  C   UNL     1       4.647  -3.750   0.000  1.00  0.00     0.027 A 
ENDBRANCH   3   7
BRANCH   6  17
HETATM   17  C   UNL     1       3.681  -8.772   0.000  1.00  0.00    -0.033 A 
HETATM   18  C   UNL     1       5.173  -8.615   0.000  1.00  0.00     0.023 A 
HETATM   19  C   UNL     1       6.054  -9.829   0.000  1.00  0.00     0.004 A 
HETATM   20  C   UNL     1       5.444 -11.199   0.000  1.00  0.00     0.001 A 
HETATM   21  C   UNL     1       3.952 -11.356   0.000  1.00  0.00     0.004 A 
HETATM   22  C   UNL     1       3.071 -10.142   0.000  1.00  0.00     0.023 A 
ENDBRANCH   6  17
TORSDOF 2
