REMARK  4 active torsions:
REMARK  status: ('A' for Active; 'I' for Inactive)
REMARK    1  A    between atoms: N_3  and  C_10 
REMARK    2  A    between atoms: C_11  and  C_16 
REMARK    3  A    between atoms: C_15  and  N_18 
REMARK    4  A    between atoms: N_18  and  C_19 
ROOT
HETATM    1  N   UNL     1       4.656  -8.424   0.000  1.00  0.00    -0.213 NA
HETATM    2  N   UNL     1       4.385  -5.840   0.000  1.00  0.00    -0.213 NA
HETATM    3  N   UNL     1       6.758  -4.470   0.000  1.00  0.00    -0.247 N 
HETATM    4  N   UNL     1       8.184  -4.933   0.000  1.00  0.00    -0.111 NA
HETATM    5  C   UNL     1       3.774  -7.210   0.000  1.00  0.00     0.142 A 
HETATM    6  C   UNL     1       5.876  -5.683   0.000  1.00  0.00     0.160 A 
HETATM    7  C   UNL     1       6.758  -6.897   0.000  1.00  0.00     0.068 A 
HETATM    8  C   UNL     1       8.184  -6.433   0.000  1.00  0.00     0.147 A 
HETATM    9  C   UNL     1       6.148  -8.267   0.000  1.00  0.00     0.160 A 
ENDROOT
BRANCH   3  10
HETATM   10  C   UNL     1       6.294  -3.043   0.000  1.00  0.00     0.034 A 
HETATM   11  C   UNL     1       7.298  -1.928   0.000  1.00  0.00     0.041 A 
HETATM   12  C   UNL     1       6.835  -0.502   0.000  1.00  0.00     0.006 A 
HETATM   13  C   UNL     1       5.367  -0.190   0.000  1.00  0.00     0.001 A 
HETATM   14  C   UNL     1       4.364  -1.305   0.000  1.00  0.00     0.006 A 
HETATM   15  C   UNL     1       4.827  -2.731   0.000  1.00  0.00     0.041 A 
ENDBRANCH   3  10
BRANCH   5  16
HETATM   16  C   UNL     1       2.283  -7.367   0.000  1.00  0.00     0.066 C 
HETATM   17  C   UNL     1       1.673  -8.738   0.000  1.00  0.00     0.008 C 
ENDBRANCH   5  16
BRANCH   9  18
HETATM   18  N   UNL     1       7.029  -9.481   0.000  1.00  0.00    -0.257 NA
BRANCH  18  19
HETATM   19  C   UNL     1       6.419 -10.851   0.000  1.00  0.00     0.086 C 
HETATM   20  C   UNL     1       5.049 -10.241   0.000  1.00  0.00     0.024 C 
HETATM   21  C   UNL     1       5.809 -12.221   0.000  1.00  0.00     0.024 C 
HETATM   22  C   UNL     1       7.790 -11.461   0.000  1.00  0.00     0.024 C 
ENDBRANCH  18  19
ENDBRANCH   9  18
TORSDOF 4
