REMARK  3 active torsions:
REMARK  status: ('A' for Active; 'I' for Inactive)
REMARK    1  A    between atoms: C_12  and  C_13 
REMARK    2  A    between atoms: C_15  and  C_17 
REMARK    3  A    between atoms: C_18  and  C_21 
ROOT
HETATM    1  O   UNL     1       3.542  -6.132   0.000  1.00  0.00    -0.287 OA
HETATM    2  N   UNL     1       5.969  -6.132   0.000  1.00  0.00    -0.220 NA
HETATM    3  C   UNL     1       4.755  -5.250   0.000  1.00  0.00     0.200 A 
HETATM    4  C   UNL     1       4.005  -7.558   0.000  1.00  0.00     0.111 A 
HETATM    5  C   UNL     1       5.505  -7.558   0.000  1.00  0.00     0.098 A 
ENDROOT
BRANCH   3   6
HETATM    6  C   UNL     1       4.755  -3.750   0.000  1.00  0.00     0.113 A 
HETATM    7  N   UNL     1       3.456  -3.000   0.000  1.00  0.00    -0.267 NA
HETATM    8  C   UNL     1       3.456  -1.500   0.000  1.00  0.00     0.130 A 
HETATM    9  C   UNL     1       4.755  -0.750   0.000  1.00  0.00     0.048 A 
HETATM   10  C   UNL     1       6.054  -1.500   0.000  1.00  0.00    -0.045 A 
HETATM   11  C   UNL     1       7.353  -0.750   0.000  1.00  0.00     0.022 A 
HETATM   12  C   UNL     1       6.054  -3.000   0.000  1.00  0.00    -0.009 A 
HETATM   13  C   UNL     1       8.652  -1.500   0.000  1.00  0.00     0.005 A 
HETATM   14  C   UNL     1       8.652  -3.000   0.000  1.00  0.00     0.005 A 
HETATM   15  C   UNL     1       7.353  -3.750   0.000  1.00  0.00     0.027 A 
ENDBRANCH   3   6
BRANCH   4  16
HETATM   16  C   UNL     1       3.123  -8.772   0.000  1.00  0.00    -0.020 A 
HETATM   17  C   UNL     1       1.632  -8.615   0.000  1.00  0.00     0.024 A 
HETATM   18  C   UNL     1       0.750  -9.829   0.000  1.00  0.00     0.004 A 
HETATM   19  C   UNL     1       1.360 -11.199   0.000  1.00  0.00     0.001 A 
HETATM   20  C   UNL     1       2.852 -11.356   0.000  1.00  0.00     0.004 A 
HETATM   21  C   UNL     1       3.734 -10.142   0.000  1.00  0.00     0.024 A 
ENDBRANCH   4  16
BRANCH   5  22
HETATM   22  C   UNL     1       6.387  -8.772   0.000  1.00  0.00    -0.025 A 
HETATM   23  C   UNL     1       7.879  -8.615   0.000  1.00  0.00     0.024 A 
HETATM   24  C   UNL     1       8.760  -9.829   0.000  1.00  0.00     0.004 A 
HETATM   25  C   UNL     1       8.150 -11.199   0.000  1.00  0.00     0.001 A 
HETATM   26  C   UNL     1       6.658 -11.356   0.000  1.00  0.00     0.004 A 
HETATM   27  C   UNL     1       9.032 -12.412   0.000  1.00  0.00     0.000 C 
HETATM   28  C   UNL     1       5.777 -10.142   0.000  1.00  0.00     0.024 A 
ENDBRANCH   5  22
TORSDOF 3
