REMARK  3 active torsions:
REMARK  status: ('A' for Active; 'I' for Inactive)
REMARK    1  A    between atoms: C_10  and  C_26 
REMARK    2  A    between atoms: C_20  and  C_25 
REMARK    3  A    between atoms: C_25  and  C_26 
ROOT
HETATM    1  N   UNL     1       2.873   5.524   0.000  1.00  0.00    -0.294 N 
HETATM    2  C   UNL     1      -1.024   9.274   0.000  1.00  0.00     0.005 A 
HETATM    3  C   UNL     1       0.275  10.024   0.000  1.00  0.00     0.005 A 
HETATM    4  C   UNL     1      -1.024   7.774   0.000  1.00  0.00     0.026 A 
HETATM    5  C   UNL     1       0.275   7.024   0.000  1.00  0.00    -0.025 A 
HETATM    6  C   UNL     1       1.573   9.274   0.000  1.00  0.00     0.030 A 
HETATM    7  C   UNL     1       1.573   7.774   0.000  1.00  0.00     0.016 A 
HETATM    8  C   UNL     1       0.275   5.524   0.000  1.00  0.00    -0.011 A 
HETATM    9  C   UNL     1       1.573   4.774   0.000  1.00  0.00     0.053 A 
HETATM   10  C   UNL     1      -1.024   4.774   0.000  1.00  0.00     0.028 A 
HETATM   11  C   UNL     1       1.573   3.275   0.000  1.00  0.00    -0.028 A 
HETATM   12  C   UNL     1      -1.024   3.275   0.000  1.00  0.00     0.009 A 
HETATM   13  C   UNL     1       2.873   2.525   0.000  1.00  0.00     0.029 A 
HETATM   14  C   UNL     1       4.172   4.774   0.000  1.00  0.00     0.028 A 
HETATM   15  C   UNL     1       4.172   3.275   0.000  1.00  0.00     0.044 A 
HETATM   16  C   UNL     1       0.275   2.525   0.000  1.00  0.00     0.024 A 
HETATM   17  C   UNL     1       2.873   7.024   0.000  1.00  0.00     0.193 A 
HETATM   18  O   UNL     1       4.172   7.774   0.000  1.00  0.00    -0.171 OA
ENDROOT
BRANCH  14  19
HETATM   19  C   UNL     1       5.471   5.524   0.000  1.00  0.00     0.093 C 
BRANCH  19  20
HETATM   20  C   UNL     1       6.770   4.774   0.000  1.00  0.00     0.106 C 
HETATM   21  O   UNL     1       6.770   3.275   0.000  1.00  0.00    -0.195 OA
BRANCH  20  22
HETATM   22  C   UNL     1       8.069   5.524   0.000  1.00  0.00    -0.023 A 
HETATM   23  C   UNL     1       9.368   4.774   0.000  1.00  0.00     0.024 A 
HETATM   24  C   UNL     1      10.667   5.524   0.000  1.00  0.00     0.004 A 
HETATM   25  C   UNL     1      10.667   7.024   0.000  1.00  0.00     0.001 A 
HETATM   26  C   UNL     1       9.368   7.774   0.000  1.00  0.00     0.004 A 
HETATM   27  C   UNL     1       8.069   7.024   0.000  1.00  0.00     0.024 A 
ENDBRANCH  20  22
ENDBRANCH  19  20
ENDBRANCH  14  19
TORSDOF 3
