REMARK  1 active torsions:
REMARK  status: ('A' for Active; 'I' for Inactive)
REMARK    1  A    between atoms: N_4  and  C_6 
ROOT
HETATM    1  N   UNL     1     -11.142  -1.500   0.000  1.00  0.00    -0.269 NA
HETATM    2 BR   UNL     1     -13.740  -6.000   0.000  1.00  0.00    -0.054 Br
HETATM    3  N   UNL     1      -7.245  -5.250   0.000  1.00  0.00    -0.326 N 
HETATM    4  N   UNL     1      -4.647  -3.750   0.000  1.00  0.00    -0.346 N 
HETATM    5  C   UNL     1      -5.946  -3.000   0.000  1.00  0.00     0.172 A 
HETATM    6  C   UNL     1      -7.245  -3.750   0.000  1.00  0.00     0.159 A 
HETATM    7  C   UNL     1      -9.843  -3.750   0.000  1.00  0.00     0.112 A 
HETATM    8  C   UNL     1      -9.843  -5.250   0.000  1.00  0.00     0.007 A 
HETATM    9  C   UNL     1     -11.142  -3.000   0.000  1.00  0.00     0.094 A 
HETATM   10  C   UNL     1     -11.142  -6.000   0.000  1.00  0.00     0.059 A 
HETATM   11  C   UNL     1     -12.441  -3.750   0.000  1.00  0.00    -0.000 A 
HETATM   12  C   UNL     1     -12.441  -5.250   0.000  1.00  0.00     0.014 A 
HETATM   13  C   UNL     1     -13.740  -3.000   0.000  1.00  0.00     0.030 A 
HETATM   14  C   UNL     1     -13.740  -1.500   0.000  1.00  0.00     0.031 A 
HETATM   15  C   UNL     1     -12.441  -0.750   0.000  1.00  0.00     0.126 A 
HETATM   16  C   UNL     1      -4.647  -5.250   0.000  1.00  0.00     0.126 A 
HETATM   17  C   UNL     1      -5.946  -6.000   0.000  1.00  0.00     0.127 A 
HETATM   18  O   UNL     1      -8.544  -3.000   0.000  1.00  0.00    -0.292 OA
HETATM   19  C   UNL     1      -8.544  -6.000   0.000  1.00  0.00     0.128 A 
ENDROOT
BRANCH   4  20
HETATM   20  C   UNL     1      -3.348  -3.000   0.000  1.00  0.00     0.011 A 
HETATM   21  C   UNL     1      -3.348  -1.500   0.000  1.00  0.00     0.039 A 
HETATM   22  C   UNL     1      -2.049  -0.750   0.000  1.00  0.00     0.006 A 
HETATM   23  C   UNL     1      -0.750  -1.500   0.000  1.00  0.00     0.001 A 
HETATM   24  C   UNL     1      -0.750  -3.000   0.000  1.00  0.00     0.006 A 
HETATM   25  C   UNL     1      -2.049  -3.750   0.000  1.00  0.00     0.039 A 
ENDBRANCH   4  20
TORSDOF 1
