REMARK  0 active torsions:
REMARK  status: ('A' for Active; 'I' for Inactive)
ROOT
HETATM    1  O   UNL     1       1.692   1.355   0.000  1.00  0.00    -0.150 OA
HETATM    2  N   UNL     1       2.991   3.605   0.000  1.00  0.00    -0.268 N 
HETATM    3  O   UNL     1       4.290   5.855   0.000  1.00  0.00    -0.169 OA
HETATM    4  N   UNL     1       4.290   1.355   0.000  1.00  0.00    -0.276 N 
HETATM    5  H   UNL     1       7.480   5.495   0.000  1.00  0.00     0.341 HD
HETATM    6  N   UNL     1       7.016   4.068   0.000  1.00  0.00    -0.326 N 
HETATM    7  H   UNL     1       7.480   0.215   0.000  1.00  0.00     0.198 HD
HETATM    8  O   UNL     1       8.316   5.495   0.000  1.00  0.00    -0.329 OA
HETATM    9  N   UNL     1       7.016   1.641   0.000  1.00  0.00    -0.332 N 
HETATM   10  N   UNL     1      10.206   3.605   0.000  1.00  0.00    -0.339 N 
HETATM   11  H   UNL     1      11.420   4.487   0.000  1.00  0.00     0.167 HD
HETATM   12  C   UNL     1       8.779   4.068   0.000  1.00  0.00     0.173 A 
HETATM   13  C   UNL     1       7.898   2.855   0.000  1.00  0.00     0.205 A 
HETATM   14  C   UNL     1       8.780   1.641   0.000  1.00  0.00     0.024 A 
HETATM   15  C   UNL     1      11.321   1.101   0.000  1.00  0.00     0.044 A 
HETATM   16  C   UNL     1      11.009  -0.366   0.000  1.00  0.00     0.010 A 
HETATM   17  C   UNL     1      10.206   2.105   0.000  1.00  0.00     0.034 A 
HETATM   18  C   UNL     1       9.582  -0.830   0.000  1.00  0.00     0.019 A 
HETATM   19  C   UNL     1       8.468   0.174   0.000  1.00  0.00    -0.049 A 
HETATM   20  C   UNL     1       4.290   4.355   0.000  1.00  0.00     0.215 A 
HETATM   21  C   UNL     1       5.590   3.605   0.000  1.00  0.00     0.131 A 
HETATM   22  C   UNL     1       5.590   2.105   0.000  1.00  0.00     0.142 A 
HETATM   23  C   UNL     1       2.991   2.105   0.000  1.00  0.00     0.266 A 
HETATM   24  C   UNL     1       1.692   4.355   0.000  1.00  0.00     0.136 C 
HETATM   25  C   UNL     1       4.290  -0.145   0.000  1.00  0.00     0.136 C 
ENDROOT
TORSDOF 0
