REMARK  4 active torsions:
REMARK  status: ('A' for Active; 'I' for Inactive)
REMARK    1  A    between atoms: N_4  and  C_13 
REMARK    2  A    between atoms: C_5  and  C_8 
REMARK    3  A    between atoms: C_9  and  C_18 
REMARK    4  A    between atoms: C_16  and  S_20 
ROOT
HETATM    1  C   UNL     1      -9.468  -2.900   0.000  1.00  0.00     0.041 A 
HETATM    2  C   UNL     1      -9.468  -4.399   0.000  1.00  0.00     0.045 A 
HETATM    3  C   UNL     1      -8.169  -5.149   0.000  1.00  0.00     0.025 A 
HETATM    4  C   UNL     1      -6.870  -4.399   0.000  1.00  0.00     0.136 A 
HETATM    5  C   UNL     1      -6.870  -2.900   0.000  1.00  0.00     0.045 A 
HETATM    6  C   UNL     1      -8.169  -2.150   0.000  1.00  0.00    -0.013 A 
ENDROOT
BRANCH   4   7
HETATM    7  S   UNL     1      -5.571  -5.149   0.000  1.00  0.00     0.281 S 
HETATM    8  O   UNL     1      -6.321  -6.449   0.000  1.00  0.00    -0.201 OA
HETATM    9  O   UNL     1      -4.821  -3.850   0.000  1.00  0.00    -0.201 OA
HETATM   10  N   UNL     1      -4.272  -5.899   0.000  1.00  0.00    -0.047 N 
ENDBRANCH   4   7
BRANCH   6  11
HETATM   11  C   UNL     1      -8.169  -0.649   0.000  1.00  0.00    -0.021 A 
HETATM   12  C   UNL     1      -9.468   0.101   0.000  1.00  0.00     0.009 A 
HETATM   13  C   UNL     1      -9.468   1.601   0.000  1.00  0.00     0.034 A 
HETATM   14  C   UNL     1      -8.169   2.350   0.000  1.00  0.00     0.039 A 
HETATM   15  C   UNL     1      -6.870   1.601   0.000  1.00  0.00     0.018 A 
HETATM   16  C   UNL     1      -6.870   0.101   0.000  1.00  0.00     0.059 A 
HETATM   17 CL   UNL     1      -5.571   2.350   0.000  1.00  0.00    -0.091 Cl
BRANCH  12  18
HETATM   18  C   UNL     1     -10.767  -0.649   0.000  1.00  0.00     0.148 A 
HETATM   19  N   UNL     1     -10.767  -2.150   0.000  1.00  0.00    -0.270 N 
HETATM   20  C   UNL     1     -12.066  -2.900   0.000  1.00  0.00     0.226 A 
HETATM   21  N   UNL     1     -13.365  -2.150   0.000  1.00  0.00    -0.184 NA
HETATM   22  N   UNL     1     -12.066  -4.399   0.000  1.00  0.00    -0.061 NA
HETATM   23  C   UNL     1     -13.365  -0.649   0.000  1.00  0.00     0.241 A 
HETATM   24  N   UNL     1     -12.066   0.101   0.000  1.00  0.00    -0.197 NA
HETATM   25  N   UNL     1     -14.664   0.101   0.000  1.00  0.00    -0.059 NA
ENDBRANCH  12  18
ENDBRANCH   6  11
TORSDOF 4
