REMARK  4 active torsions:
REMARK  status: ('A' for Active; 'I' for Inactive)
REMARK    1  A    between atoms: C_5  and  C_7 
REMARK    2  A    between atoms: C_7  and  C_8 
REMARK    3  A    between atoms: C_8  and  C_9 
REMARK    4  A    between atoms: C_8  and  N_12 
ROOT
HETATM    1  C   UNL     1      -1.139   7.322   0.000  1.00  0.00     0.076 C 
ENDROOT
BRANCH   1   2
HETATM    2  C   UNL     1      -1.889   6.023   0.000  1.00  0.00     0.123 A 
HETATM    3  N   UNL     1      -3.380   5.866   0.000  1.00  0.00    -0.110 NA
HETATM    4  N   UNL     1      -3.692   4.399   0.000  1.00  0.00    -0.034 NA
HETATM    5  N   UNL     1      -2.393   3.649   0.000  1.00  0.00    -0.305 N 
HETATM    6  H   UNL     1      -2.236   2.157   0.000  1.00  0.00     0.178 HD
HETATM    7  C   UNL     1      -1.278   4.653   0.000  1.00  0.00     0.132 A 
ENDBRANCH   1   2
BRANCH   1   8
HETATM    8  C   UNL     1       0.361   7.322   0.000  1.00  0.00     0.154 C 
BRANCH   8   9
HETATM    9  C   UNL     1       1.111   8.621   0.000  1.00  0.00     0.228 C 
HETATM   10  O   UNL     1       2.611   8.621   0.000  1.00  0.00    -0.643 OA
HETATM   11  O   UNL     1       0.361   9.920   0.000  1.00  0.00    -0.643 OA
ENDBRANCH   8   9
BRANCH   8  12
HETATM   12  N   UNL     1       1.111   6.023   0.000  1.00  0.00    -0.095 NA
HETATM   13  O   UNL     1       2.611   6.023   0.000  1.00  0.00    -0.061 OA
ENDBRANCH   8  12
ENDBRANCH   1   8
TORSDOF 4
