REMARK  5 active torsions:
REMARK  status: ('A' for Active; 'I' for Inactive)
REMARK    1  A    between atoms: CA_1  and  C_10 
REMARK    2  A    between atoms: C_3  and  C_15 
REMARK    3  A    between atoms: C_6  and  O_7 
REMARK    4  A    between atoms: C_6  and  C_15 
REMARK    5  A    between atoms: O_7  and  C_16 
ROOT
HETATM    1  CA  UNL     1      -3.123   7.650   0.000  1.00  0.00     0.104 A 
HETATM    2  C   UNL     1      -4.623   7.650   0.000  1.00  0.00     0.074 A 
HETATM    3  C   UNL     1      -3.873   5.342   0.000  1.00  0.00     0.101 A 
HETATM    4  S   UNL     1      -5.087   6.223   0.000  1.00  0.00    -0.181 SA
HETATM    5  N   UNL     1      -2.660   6.223   0.000  1.00  0.00    -0.367 N 
HETATM    6  H   UNL     1      -1.233   5.760   0.000  1.00  0.00     0.161 HD
HETATM    7  C   UNL     1      -6.123   7.650   0.000  1.00  0.00     0.057 A 
HETATM    8  C   UNL     1      -4.623   9.150   0.000  1.00  0.00     0.016 C 
HETATM    9  C   UNL     1      -4.877   4.227   0.000  1.00  0.00     0.072 A 
ENDROOT
BRANCH   3  10
HETATM   10  C   UNL     1      -2.870   4.227   0.000  1.00  0.00     0.095 C 
BRANCH  10  11
HETATM   11  C   UNL     1      -3.333   2.800   0.000  1.00  0.00     0.272 C 
HETATM   12  O   UNL     1      -2.330   1.686   0.000  1.00  0.00    -0.190 OA
BRANCH  11  13
HETATM   13  O   UNL     1      -4.801   2.488   0.000  1.00  0.00    -0.329 OA
BRANCH  13  14
HETATM   14  C   UNL     1      -5.264   1.062   0.000  1.00  0.00     0.145 C 
HETATM   15  C   UNL     1      -6.731   0.750   0.000  1.00  0.00     0.035 C 
ENDBRANCH  13  14
ENDBRANCH  11  13
ENDBRANCH  10  11
ENDBRANCH   3  10
BRANCH   1  16
HETATM   16  C   UNL     1      -2.242   8.863   0.000  1.00  0.00     0.224 C 
HETATM   17  O   UNL     1      -0.750   8.707   0.000  1.00  0.00    -0.643 OA
HETATM   18  OXT UNL     1      -2.852  10.234   0.000  1.00  0.00    -0.643 OA
ENDBRANCH   1  16
TORSDOF 5
