REMARK  0 active torsions:
REMARK  status: ('A' for Active; 'I' for Inactive)
ROOT
HETATM    1  C   UNL     1       2.451  -3.257   0.000  1.00  0.00     0.033 A 
HETATM    2  C   UNL     1       2.451  -4.757   0.000  1.00  0.00     0.007 A 
HETATM    3  C   UNL     1       3.750  -2.507   0.000  1.00  0.00     0.152 A 
HETATM    4  C   UNL     1       3.750  -5.507   0.000  1.00  0.00     0.018 A 
HETATM    5  O   UNL     1       3.750  -1.007   0.000  1.00  0.00    -0.224 OA
HETATM    6  C   UNL     1       5.049  -4.757   0.000  1.00  0.00     0.010 A 
HETATM    7  C   UNL     1       5.049  -3.257   0.000  1.00  0.00     0.034 A 
HETATM    8  C   UNL     1       3.000  -6.806   0.000  1.00  0.00    -0.049 A 
HETATM    9  C   UNL     1       3.750  -8.105   0.000  1.00  0.00    -0.038 A 
HETATM   10  C   UNL     1       3.000  -9.404   0.000  1.00  0.00     0.025 A 
HETATM   11  C   UNL     1       1.500  -9.404   0.000  1.00  0.00     0.005 A 
HETATM   12  C   UNL     1       0.750  -8.105   0.000  1.00  0.00     0.005 A 
HETATM   13  C   UNL     1       1.500  -6.806   0.000  1.00  0.00     0.022 A 
HETATM   14  C   UNL     1       5.049  -6.257   0.000  1.00  0.00     0.018 A 
HETATM   15  C   UNL     1       6.348  -5.507   0.000  1.00  0.00     0.004 A 
HETATM   16  C   UNL     1       7.647  -6.257   0.000  1.00  0.00     0.001 A 
HETATM   17  C   UNL     1       7.647  -7.757   0.000  1.00  0.00     0.004 A 
HETATM   18  C   UNL     1       6.348  -8.507   0.000  1.00  0.00     0.022 A 
HETATM   19  C   UNL     1       5.049  -7.757   0.000  1.00  0.00    -0.049 A 
ENDROOT
TORSDOF 0
