REMARK  3 active torsions:
REMARK  status: ('A' for Active; 'I' for Inactive)
REMARK    1  A    between atoms: O_2  and  C_7 
REMARK    2  A    between atoms: O_2  and  C_9 
REMARK    3  A    between atoms: C_10  and  N_14 
ROOT
HETATM    1  N   UNL     1      -3.522  -4.399   0.000  1.00  0.00    -0.247 NA
HETATM    2  C   UNL     1      -3.522  -5.899   0.000  1.00  0.00     0.192 A 
HETATM    3  C   UNL     1      -4.821  -6.649   0.000  1.00  0.00     0.144 A 
HETATM    4  C   UNL     1      -6.120  -5.899   0.000  1.00  0.00     0.056 A 
HETATM    5  C   UNL     1      -6.120  -4.399   0.000  1.00  0.00     0.033 A 
HETATM    6  C   UNL     1      -4.821  -3.650   0.000  1.00  0.00     0.128 A 
ENDROOT
BRANCH   2   7
HETATM    7  O   UNL     1      -2.223  -6.649   0.000  1.00  0.00    -0.315 OA
BRANCH   7   8
HETATM    8  C   UNL     1      -0.924  -5.899   0.000  1.00  0.00     0.147 A 
HETATM    9  C   UNL     1       0.375  -6.649   0.000  1.00  0.00     0.034 A 
HETATM   10  C   UNL     1       1.674  -5.899   0.000  1.00  0.00     0.028 A 
HETATM   11  C   UNL     1       1.674  -4.399   0.000  1.00  0.00     0.120 A 
HETATM   12  N   UNL     1       0.375  -3.650   0.000  1.00  0.00    -0.293 NA
HETATM   13  C   UNL     1      -0.924  -4.399   0.000  1.00  0.00     0.150 A 
ENDBRANCH   7   8
ENDBRANCH   2   7
BRANCH   3  14
HETATM   14  N   UNL     1      -4.821  -8.149   0.000  1.00  0.00    -0.114 N 
HETATM   15  O   UNL     1      -3.522  -8.899   0.000  1.00  0.00    -0.532 OA
HETATM   16  O   UNL     1      -6.120  -8.899   0.000  1.00  0.00    -0.532 OA
ENDBRANCH   3  14
TORSDOF 3
