REMARK  0 active torsions:
REMARK  status: ('A' for Active; 'I' for Inactive)
ROOT
HETATM    1  N   UNL     1       2.049  -4.500   0.000  1.00  0.00    -0.224 N 
HETATM    2  N   UNL     1       2.049  -7.500   0.000  1.00  0.00    -0.263 NA
HETATM    3  C   UNL     1       3.348  -5.250   0.000  1.00  0.00     0.148 A 
HETATM    4  CA  UNL     1       3.348  -6.750   0.000  1.00  0.00     0.149 A 
HETATM    5  C   UNL     1       0.750  -5.250   0.000  1.00  0.00     0.159 A 
HETATM    6  C   UNL     1       0.750  -6.750   0.000  1.00  0.00     0.153 A 
HETATM    7  C   UNL     1       4.647  -4.500   0.000  1.00  0.00     0.235 A 
HETATM    8  O   UNL     1       5.946  -5.250   0.000  1.00  0.00    -0.167 OA
HETATM    9  C   UNL     1       4.647  -7.500   0.000  1.00  0.00     0.279 A 
HETATM   10  O   UNL     1       5.946  -6.750   0.000  1.00  0.00    -0.159 OA
HETATM   11  OXT UNL     1       4.647  -9.000   0.000  1.00  0.00    -0.159 OA
HETATM   12  N   UNL     1       4.647  -3.000   0.000  1.00  0.00    -0.180 NA
HETATM   13  C   UNL     1       3.348  -2.250   0.000  1.00  0.00     0.280 A 
HETATM   14  O   UNL     1       2.049  -3.000   0.000  1.00  0.00    -0.198 OA
HETATM   15  N   UNL     1       3.348  -0.750   0.000  1.00  0.00    -0.052 NA
ENDROOT
TORSDOF 0
