REMARK  1 active torsions:
REMARK  status: ('A' for Active; 'I' for Inactive)
REMARK    1  A    between atoms: S_3  and  C_16 
ROOT
HETATM    1  S   UNL     1       0.847   0.815   0.000  1.00  0.00    -0.112 SA
HETATM    2  C   UNL     1       2.102  -0.007   0.000  1.00  0.00     0.013 A 
HETATM    3  C   UNL     1       3.441   0.669   0.000  1.00  0.00     0.055 A 
HETATM    4  C   UNL     1       2.017  -1.504   0.000  1.00  0.00     0.033 A 
HETATM    5  C   UNL     1       3.272  -2.326   0.000  1.00  0.00     0.006 A 
HETATM    6  C   UNL     1       4.696  -0.153   0.000  1.00  0.00     0.046 A 
HETATM    7  C   UNL     1       4.611  -1.651   0.000  1.00  0.00     0.007 A 
HETATM    8  C   UNL     1       0.932   2.313   0.000  1.00  0.00     0.085 A 
HETATM    9  C   UNL     1       2.271   2.988   0.000  1.00  0.00     0.137 A 
HETATM   10  N   UNL     1       3.526   2.166   0.000  1.00  0.00    -0.274 NA
ENDROOT
BRANCH   1  11
HETATM   11  C   UNL     1      -0.589   0.383   0.000  1.00  0.00     0.131 A 
HETATM   12  S   UNL     1      -1.783   1.290   0.000  1.00  0.00    -0.065 SA
HETATM   13  C   UNL     1      -3.016   0.435   0.000  1.00  0.00     0.023 A 
HETATM   14  C   UNL     1      -4.476   0.778   0.000  1.00  0.00     0.034 A 
HETATM   15  C   UNL     1      -2.583  -1.002   0.000  1.00  0.00     0.062 A 
HETATM   16  C   UNL     1      -5.503  -0.315   0.000  1.00  0.00     0.006 A 
HETATM   17  C   UNL     1      -5.071  -1.751   0.000  1.00  0.00     0.007 A 
HETATM   18  C   UNL     1      -3.610  -2.094   0.000  1.00  0.00     0.046 A 
HETATM   19  N   UNL     1      -1.083  -1.034   0.000  1.00  0.00    -0.237 NA
ENDBRANCH   1  11
TORSDOF 1
