REMARK  0 active torsions:
REMARK  status: ('A' for Active; 'I' for Inactive)
ROOT
HETATM    1  O   UNL     1      -6.120  -4.399   0.000  1.00  0.00    -0.191 OA
HETATM    2  O   UNL     1      -6.120 -10.399   0.000  1.00  0.00    -0.191 OA
HETATM    3  S   UNL     1      -3.522  -4.399   0.000  1.00  0.00    -0.090 SA
HETATM    4  C   UNL     1      -0.075  -1.507   0.000  1.00  0.00     0.007 A 
HETATM    5  C   UNL     1      -1.484  -0.994   0.000  1.00  0.00     0.006 A 
HETATM    6  C   UNL     1       0.186  -2.984   0.000  1.00  0.00     0.052 A 
HETATM    7  C   UNL     1      -0.964  -3.948   0.000  1.00  0.00     0.082 A 
HETATM    8  C   UNL     1      -2.634  -1.958   0.000  1.00  0.00     0.035 A 
HETATM    9  C   UNL     1      -2.373  -3.435   0.000  1.00  0.00     0.026 A 
HETATM   10  C   UNL     1      -3.522  -5.899   0.000  1.00  0.00     0.031 A 
HETATM   11  C   UNL     1      -4.821  -6.649   0.000  1.00  0.00     0.029 A 
HETATM   12  C   UNL     1      -2.223  -6.649   0.000  1.00  0.00     0.033 A 
HETATM   13  C   UNL     1      -6.120  -5.899   0.000  1.00  0.00     0.127 A 
HETATM   14  C   UNL     1      -7.419  -6.649   0.000  1.00  0.00     0.001 A 
HETATM   15  C   UNL     1      -8.718  -5.899   0.000  1.00  0.00     0.028 A 
HETATM   16  C   UNL     1     -10.017  -6.649   0.000  1.00  0.00     0.005 A 
HETATM   17  C   UNL     1      -2.223  -8.149   0.000  1.00  0.00     0.036 A 
HETATM   18  C   UNL     1      -4.821  -8.149   0.000  1.00  0.00     0.006 A 
HETATM   19  C   UNL     1      -7.419  -8.149   0.000  1.00  0.00     0.001 A 
HETATM   20  C   UNL     1     -10.017  -8.149   0.000  1.00  0.00     0.005 A 
HETATM   21  C   UNL     1      -3.522  -8.899   0.000  1.00  0.00     0.033 A 
HETATM   22  C   UNL     1      -6.120  -8.899   0.000  1.00  0.00     0.123 A 
HETATM   23  C   UNL     1      -8.718  -8.899   0.000  1.00  0.00     0.028 A 
HETATM   24  C   UNL     1      -0.814  -6.136   0.000  1.00  0.00     0.229 A 
HETATM   25  O   UNL     1       0.336  -7.101   0.000  1.00  0.00    -0.163 OA
HETATM   26  O   UNL     1      -0.553  -4.659   0.000  1.00  0.00    -0.288 OA
ENDROOT
TORSDOF 0
