REMARK  1 active torsions:
REMARK  status: ('A' for Active; 'I' for Inactive)
REMARK    1  A    between atoms: N_5  and  C_12 
ROOT
HETATM    1  N   UNL     1     -10.156  -3.000   0.000  1.00  0.00    -0.187 NA
HETATM    2  N   UNL     1      -8.857  -5.250   0.000  1.00  0.00    -0.194 NA
HETATM    3  O   UNL     1      -8.857  -0.750   0.000  1.00  0.00    -0.167 OA
HETATM    4  N   UNL     1      -6.132  -2.537   0.000  1.00  0.00    -0.143 NA
HETATM    5  N   UNL     1      -5.250  -3.750   0.000  1.00  0.00    -0.178 N 
HETATM    6  N   UNL     1      -6.132  -4.963   0.000  1.00  0.00    -0.259 N 
HETATM    7  H   UNL     1      -5.668  -6.390   0.000  1.00  0.00     0.191 HD
HETATM    8  C   UNL     1      -8.857  -2.250   0.000  1.00  0.00     0.237 A 
HETATM    9  C   UNL     1      -7.558  -3.000   0.000  1.00  0.00     0.182 A 
HETATM   10  C   UNL     1      -7.558  -4.500   0.000  1.00  0.00     0.182 A 
HETATM   11  C   UNL     1     -10.156  -4.500   0.000  1.00  0.00     0.241 A 
HETATM   12  N   UNL     1     -11.455  -5.250   0.000  1.00  0.00    -0.059 NA
ENDROOT
BRANCH   5  13
HETATM   13  C   UNL     1      -3.750  -3.750   0.000  1.00  0.00     0.056 A 
HETATM   14  C   UNL     1      -3.000  -2.451   0.000  1.00  0.00     0.043 A 
HETATM   15  C   UNL     1      -1.500  -2.451   0.000  1.00  0.00     0.006 A 
HETATM   16  C   UNL     1      -0.750  -3.750   0.000  1.00  0.00     0.001 A 
HETATM   17  C   UNL     1      -1.500  -5.049   0.000  1.00  0.00     0.006 A 
HETATM   18  C   UNL     1      -3.000  -5.049   0.000  1.00  0.00     0.043 A 
ENDBRANCH   5  13
TORSDOF 1
