REMARK  2 active torsions:
REMARK  status: ('A' for Active; 'I' for Inactive)
REMARK    1  A    between atoms: C_7  and  O_16 
REMARK    2  A    between atoms: O_16  and  C_17 
ROOT
HETATM    1  O   UNL     1      -6.221  -4.774   0.000  1.00  0.00    -0.191 OA
HETATM    2  C   UNL     1      -3.623  -0.275   0.000  1.00  0.00     0.110 A 
HETATM    3  C   UNL     1      -4.922  -1.024   0.000  1.00  0.00     0.045 A 
HETATM    4  C   UNL     1      -2.324  -1.024   0.000  1.00  0.00     0.055 A 
HETATM    5  C   UNL     1      -6.221  -0.275   0.000  1.00  0.00     0.134 A 
HETATM    6  C   UNL     1      -7.520  -1.024   0.000  1.00  0.00     0.042 A 
HETATM    7  C   UNL     1      -8.819  -0.275   0.000  1.00  0.00     0.076 A 
HETATM    8  C   UNL     1     -10.118  -1.024   0.000  1.00  0.00     0.051 A 
HETATM    9  C   UNL     1      -2.324  -2.525   0.000  1.00  0.00     0.012 A 
HETATM   10  C   UNL     1      -4.922  -2.525   0.000  1.00  0.00     0.007 A 
HETATM   11  C   UNL     1      -7.520  -2.525   0.000  1.00  0.00     0.006 A 
HETATM   12  C   UNL     1     -10.118  -2.525   0.000  1.00  0.00     0.011 A 
HETATM   13  C   UNL     1      -3.623  -3.275   0.000  1.00  0.00     0.029 A 
HETATM   14  C   UNL     1      -6.221  -3.275   0.000  1.00  0.00     0.123 A 
HETATM   15  C   UNL     1      -8.819  -3.275   0.000  1.00  0.00     0.029 A 
HETATM   16  O   UNL     1      -6.221   1.226   0.000  1.00  0.00    -0.190 OA
HETATM   17  O   UNL     1      -3.623   1.226   0.000  1.00  0.00    -0.195 OA
ENDROOT
BRANCH   7  18
HETATM   18  O   UNL     1      -8.819   1.226   0.000  1.00  0.00    -0.308 OA
BRANCH  18  19
HETATM   19  C   UNL     1     -10.118   1.976   0.000  1.00  0.00     0.273 C 
HETATM   20  O   UNL     1     -11.417   1.226   0.000  1.00  0.00    -0.190 OA
HETATM   21  C   UNL     1     -10.118   3.475   0.000  1.00  0.00     0.070 C 
ENDBRANCH  18  19
ENDBRANCH   7  18
TORSDOF 2
