REMARK  3 active torsions:
REMARK  status: ('A' for Active; 'I' for Inactive)
REMARK    1  A    between atoms: C_5  and  N_19 
REMARK    2  A    between atoms: C_15  and  N_18 
REMARK    3  A    between atoms: N_18  and  N_19 
ROOT
HETATM    1  H   UNL     1       7.520   1.025   0.000  1.00  0.00     0.167 HD
HETATM    2  N   UNL     1       6.221   0.275   0.000  1.00  0.00    -0.345 N 
HETATM    3  C   UNL     1       4.922   2.525   0.000  1.00  0.00     0.043 A 
HETATM    4  C   UNL     1       3.623   3.275   0.000  1.00  0.00     0.006 A 
HETATM    5  C   UNL     1       4.922   1.024   0.000  1.00  0.00     0.027 A 
HETATM    6  C   UNL     1       3.623   0.275   0.000  1.00  0.00    -0.032 A 
HETATM    7  C   UNL     1       2.324   2.525   0.000  1.00  0.00     0.005 A 
HETATM    8  C   UNL     1       3.623  -1.226   0.000  1.00  0.00     0.031 A 
HETATM    9  C   UNL     1       6.221  -1.226   0.000  1.00  0.00     0.139 A 
HETATM   10  C   UNL     1       4.922  -1.976   0.000  1.00  0.00     0.070 A 
HETATM   11  C   UNL     1       2.324   1.024   0.000  1.00  0.00     0.023 A 
ENDROOT
BRANCH   9  12
HETATM   12  N   UNL     1       7.520  -1.975   0.000  1.00  0.00    -0.136 NA
BRANCH  12  13
HETATM   13  N   UNL     1       8.819  -1.225   0.000  1.00  0.00    -0.156 NA
BRANCH  13  14
HETATM   14  C   UNL     1      10.118  -1.975   0.000  1.00  0.00     0.058 A 
HETATM   15  C   UNL     1      11.417  -1.225   0.000  1.00  0.00     0.043 A 
HETATM   16  C   UNL     1      12.716  -1.975   0.000  1.00  0.00     0.006 A 
HETATM   17  C   UNL     1      12.716  -3.475   0.000  1.00  0.00     0.001 A 
HETATM   18  C   UNL     1      11.417  -4.225   0.000  1.00  0.00     0.006 A 
HETATM   19  C   UNL     1      10.118  -3.475   0.000  1.00  0.00     0.043 A 
ENDBRANCH  13  14
ENDBRANCH  12  13
ENDBRANCH   9  12
TORSDOF 3
