REMARK  3 active torsions:
REMARK  status: ('A' for Active; 'I' for Inactive)
REMARK    1  A    between atoms: N_3  and  C_16 
REMARK    2  A    between atoms: C_10  and  C_12 
REMARK    3  A    between atoms: C_21  and  C_26 
ROOT
HETATM    1  N   UNL     1       4.511   5.421   0.000  1.00  0.00     0.000 N 
HETATM    2  O   UNL     1       8.323   2.363   0.000  1.00  0.00    -0.175 OA
HETATM    3  N   UNL     1       8.765   5.080   0.000  1.00  0.00    -0.279 N 
HETATM    4  O   UNL     1       8.323   7.775   0.000  1.00  0.00    -0.175 OA
HETATM    5  C   UNL     1       7.852   3.787   0.000  1.00  0.00     0.175 A 
HETATM    6  C   UNL     1       6.341   4.282   0.000  1.00  0.00     0.066 A 
HETATM    7  C   UNL     1       4.980   3.493   0.000  1.00  0.00     0.009 A 
HETATM    8  C   UNL     1       3.590   4.282   0.000  1.00  0.00     0.013 A 
HETATM    9  C   UNL     1       5.317   4.696   0.000  1.00  0.00     0.016 A 
HETATM   10  C   UNL     1       6.341   5.869   0.000  1.00  0.00     0.067 A 
HETATM   11  C   UNL     1       3.590   5.869   0.000  1.00  0.00     0.078 A 
HETATM   12  C   UNL     1       4.980   6.658   0.000  1.00  0.00     0.022 A 
HETATM   13  C   UNL     1       7.852   6.351   0.000  1.00  0.00     0.175 A 
HETATM   14  C   UNL     1       2.244   4.429   0.000  1.00  0.00     0.001 A 
HETATM   15  C   UNL     1       2.293   6.624   0.000  1.00  0.00    -0.007 C 
HETATM   16  N   UNL     1       0.997   7.379   0.000  1.00  0.00    -0.101 N 
ENDROOT
BRANCH  14  17
HETATM   17  C   UNL     1       2.077   2.938   0.000  1.00  0.00     0.000 A 
HETATM   18  C   UNL     1       3.285   2.049   0.000  1.00  0.00     0.000 A 
HETATM   19  C   UNL     1       3.119   0.558   0.000  1.00  0.00     0.000 A 
HETATM   20  C   UNL     1       1.744  -0.043   0.000  1.00  0.00     0.000 A 
HETATM   21  C   UNL     1       0.536   0.846   0.000  1.00  0.00     0.000 A 
HETATM   22  C   UNL     1       0.703   2.337   0.000  1.00  0.00     0.000 A 
ENDBRANCH  14  17
BRANCH   3  23
HETATM   23  C   UNL     1      10.265   5.086   0.000  1.00  0.00     0.022 A 
HETATM   24  C   UNL     1      11.010   6.388   0.000  1.00  0.00     0.040 A 
HETATM   25  C   UNL     1      12.510   6.394   0.000  1.00  0.00     0.006 A 
HETATM   26  C   UNL     1      13.265   5.098   0.000  1.00  0.00     0.001 A 
HETATM   27  C   UNL     1      12.520   3.796   0.000  1.00  0.00     0.006 A 
HETATM   28  C   UNL     1      11.020   3.790   0.000  1.00  0.00     0.040 A 
ENDBRANCH   3  23
TORSDOF 3
