REMARK  2 active torsions:
REMARK  status: ('A' for Active; 'I' for Inactive)
REMARK    1  A    between atoms: C_4  and  C_5 
REMARK    2  A    between atoms: C_11  and  C_13 
ROOT
HETATM    1  N   UNL     1      -7.195   2.654   0.000  1.00  0.00     0.356 N 
HETATM    2  S   UNL     1      -6.941   0.240   0.000  1.00  0.00    -0.079 SA
HETATM    3  C   UNL     1      -5.728   2.342   0.000  1.00  0.00     0.323 A 
HETATM    4  C   UNL     1      -5.571   0.851   0.000  1.00  0.00     0.033 A 
HETATM    5  C   UNL     1      -7.945   1.355   0.000  1.00  0.00     0.341 A 
ENDROOT
BRANCH   4   6
HETATM    6  C   UNL     1      -4.272   0.101   0.000  1.00  0.00    -0.041 A 
HETATM    7  C   UNL     1      -4.272  -1.399   0.000  1.00  0.00     0.022 A 
HETATM    8  C   UNL     1      -2.973  -2.150   0.000  1.00  0.00     0.004 A 
HETATM    9  C   UNL     1      -1.674  -1.399   0.000  1.00  0.00     0.001 A 
HETATM   10  C   UNL     1      -1.674   0.101   0.000  1.00  0.00     0.004 A 
HETATM   11  C   UNL     1      -2.973   0.851   0.000  1.00  0.00     0.022 A 
ENDBRANCH   4   6
BRANCH   5  12
HETATM   12  C   UNL     1      -9.437   1.198   0.000  1.00  0.00     0.230 C 
HETATM   13  O   UNL     1     -10.319   2.412   0.000  1.00  0.00    -0.217 OA
ENDBRANCH   5  12
TORSDOF 2
