REMARK  2 active torsions:
REMARK  status: ('A' for Active; 'I' for Inactive)
REMARK    1  A    between atoms: C_7  and  N_18 
REMARK    2  A    between atoms: C_10  and  N_13 
ROOT
HETATM    1  C   UNL     1       5.471  10.024   0.000  1.00  0.00    -0.004 A 
HETATM    2  C   UNL     1       0.275  10.024   0.000  1.00  0.00     0.050 A 
HETATM    3  C   UNL     1       6.770   9.274   0.000  1.00  0.00     0.067 A 
HETATM    4  C   UNL     1       4.172   9.274   0.000  1.00  0.00     0.064 A 
HETATM    5  C   UNL     1       1.574   9.274   0.000  1.00  0.00     0.046 A 
HETATM    6  C   UNL     1      -1.024   9.274   0.000  1.00  0.00     0.045 A 
HETATM    7  C   UNL     1       6.770   7.774   0.000  1.00  0.00     0.020 A 
HETATM    8  C   UNL     1       4.172   7.774   0.000  1.00  0.00     0.028 A 
HETATM    9  C   UNL     1       1.574   7.774   0.000  1.00  0.00     0.025 A 
HETATM   10  C   UNL     1      -1.024   7.774   0.000  1.00  0.00     0.016 A 
HETATM   11  C   UNL     1       5.471   7.024   0.000  1.00  0.00     0.074 A 
HETATM   12  C   UNL     1       0.275   7.024   0.000  1.00  0.00     0.073 A 
HETATM   13  S   UNL     1       2.873   7.024   0.000  1.00  0.00    -0.092 SA
HETATM   14  O   UNL     1       1.574  12.274   0.000  1.00  0.00    -0.171 OA
HETATM   15  N   UNL     1       2.873  10.024   0.000  1.00  0.00    -0.290 N 
HETATM   16  C   UNL     1       2.873  11.524   0.000  1.00  0.00     0.194 A 
HETATM   17  C   UNL     1       4.172  12.274   0.000  1.00  0.00     0.016 A 
HETATM   18  C   UNL     1       4.172  13.774   0.000  1.00  0.00     0.030 A 
HETATM   19  C   UNL     1       5.471  14.524   0.000  1.00  0.00     0.005 A 
HETATM   20  C   UNL     1       6.770  13.774   0.000  1.00  0.00     0.005 A 
HETATM   21  C   UNL     1       6.770  12.274   0.000  1.00  0.00     0.026 A 
HETATM   22  C   UNL     1       5.471  11.524   0.000  1.00  0.00    -0.025 A 
ENDROOT
BRANCH   7  23
HETATM   23  N   UNL     1       8.069   7.024   0.000  1.00  0.00    -0.351 N 
HETATM   24  C   UNL     1       8.069   5.524   0.000  1.00  0.00     0.125 C 
HETATM   25  C   UNL     1       9.368   7.774   0.000  1.00  0.00     0.125 C 
ENDBRANCH   7  23
BRANCH  10  26
HETATM   26  N   UNL     1      -2.324   7.024   0.000  1.00  0.00    -0.351 N 
HETATM   27  C   UNL     1      -3.623   7.774   0.000  1.00  0.00     0.125 C 
HETATM   28  C   UNL     1      -2.324   5.524   0.000  1.00  0.00     0.125 C 
ENDBRANCH  10  26
TORSDOF 2
