REMARK  3 active torsions:
REMARK  status: ('A' for Active; 'I' for Inactive)
REMARK    1  A    between atoms: C_2  and  S_10 
REMARK    2  A    between atoms: S_10  and  C_11 
REMARK    3  A    between atoms: C_11  and  C_12 
ROOT
HETATM    1  C   UNL     1      -5.705  -4.160   0.000  1.00  0.00     0.046 A 
HETATM    2  C   UNL     1      -2.098  -5.660   0.000  1.00  0.00     0.202 A 
HETATM    3  C   UNL     1      -4.406  -4.910   0.000  1.00  0.00     0.057 A 
HETATM    4  C   UNL     1      -7.005  -4.910   0.000  1.00  0.00     0.007 A 
HETATM    5  C   UNL     1      -4.406  -6.410   0.000  1.00  0.00     0.019 A 
HETATM    6  C   UNL     1      -7.005  -6.410   0.000  1.00  0.00     0.006 A 
HETATM    7  C   UNL     1      -5.705  -7.160   0.000  1.00  0.00     0.034 A 
HETATM    8  N   UNL     1      -2.980  -4.447   0.000  1.00  0.00    -0.254 NA
HETATM    9  S   UNL     1      -2.980  -6.874   0.000  1.00  0.00    -0.082 SA
ENDROOT
BRANCH   2  10
HETATM   10  S   UNL     1      -0.598  -5.660   0.000  1.00  0.00    -0.094 SA
BRANCH  10  11
HETATM   11  C   UNL     1       0.152  -4.361   0.000  1.00  0.00     0.158 C 
BRANCH  11  12
HETATM   12  C   UNL     1      -0.598  -3.062   0.000  1.00  0.00     0.197 C 
HETATM   13  O   UNL     1      -2.098  -3.062   0.000  1.00  0.00    -0.647 OA
HETATM   14  O   UNL     1       0.152  -1.763   0.000  1.00  0.00    -0.647 OA
ENDBRANCH  11  12
ENDBRANCH  10  11
ENDBRANCH   2  10
TORSDOF 3
