REMARK  4 active torsions:
REMARK  status: ('A' for Active; 'I' for Inactive)
REMARK    1  A    between atoms: C_3  and  C_18 
REMARK    2  A    between atoms: C_5  and  N_19 
REMARK    3  A    between atoms: C_14  and  C_17 
REMARK    4  A    between atoms: C_17  and  C_18 
ROOT
HETATM    1  C   UNL     1      -7.245   6.750   0.000  1.00  0.00     0.041 C 
ENDROOT
BRANCH   1   2
HETATM    2  C   UNL     1      -8.544   7.500   0.000  1.00  0.00     0.037 A 
HETATM    3  N   UNL     1      -8.544   9.000   0.000  1.00  0.00    -0.259 NA
HETATM    4  C   UNL     1      -9.843   9.750   0.000  1.00  0.00     0.050 A 
HETATM    5  C   UNL     1      -9.843  11.250   0.000  1.00  0.00     0.045 A 
HETATM    6  C   UNL     1     -11.142   9.000   0.000  1.00  0.00    -0.030 A 
HETATM    7  C   UNL     1     -11.142  12.000   0.000  1.00  0.00     0.007 A 
HETATM    8  C   UNL     1     -12.441  11.250   0.000  1.00  0.00     0.005 A 
HETATM    9  C   UNL     1     -12.441   9.750   0.000  1.00  0.00     0.023 A 
HETATM   10  C   UNL     1     -11.142   7.500   0.000  1.00  0.00     0.029 A 
HETATM   11  C   UNL     1      -9.843   6.750   0.000  1.00  0.00     0.046 A 
ENDBRANCH   1   2
BRANCH   1  12
HETATM   12  C   UNL     1      -7.245   5.250   0.000  1.00  0.00     0.006 C 
BRANCH  12  13
HETATM   13  C   UNL     1      -5.946   4.500   0.000  1.00  0.00     0.001 A 
HETATM   14  C   UNL     1      -4.647   5.250   0.000  1.00  0.00     0.006 A 
HETATM   15  C   UNL     1      -3.348   4.500   0.000  1.00  0.00     0.039 A 
HETATM   16  C   UNL     1      -3.348   3.000   0.000  1.00  0.00     0.010 A 
HETATM   17  C   UNL     1      -4.647   2.250   0.000  1.00  0.00     0.039 A 
HETATM   18  C   UNL     1      -5.946   3.000   0.000  1.00  0.00     0.006 A 
BRANCH  16  19
HETATM   19  N   UNL     1      -2.049   2.250   0.000  1.00  0.00    -0.351 N 
HETATM   20  C   UNL     1      -0.750   3.000   0.000  1.00  0.00     0.125 C 
HETATM   21  C   UNL     1      -2.049   0.750   0.000  1.00  0.00     0.125 C 
ENDBRANCH  16  19
ENDBRANCH  12  13
ENDBRANCH   1  12
TORSDOF 4
