REMARK  5 active torsions:
REMARK  status: ('A' for Active; 'I' for Inactive)
REMARK    1  A    between atoms: C_2  and  C_21 
REMARK    2  A    between atoms: C_17  and  C_18 
REMARK    3  A    between atoms: C_18  and  N_19 
REMARK    4  A    between atoms: N_19  and  N_20 
REMARK    5  A    between atoms: N_20  and  C_21 
ROOT
HETATM    1  C   UNL     1      -1.882   0.260   0.000  1.00  0.00     0.023 A 
HETATM    2  C   UNL     1      -3.181   1.010   0.000  1.00  0.00     0.005 A 
HETATM    3  C   UNL     1      -0.583   1.010   0.000  1.00  0.00    -0.025 A 
HETATM    4  C   UNL     1      -0.583   2.510   0.000  1.00  0.00     0.085 A 
HETATM    5  C   UNL     1      -3.181   2.510   0.000  1.00  0.00     0.007 A 
HETATM    6  C   UNL     1      -1.882   3.260   0.000  1.00  0.00     0.048 A 
HETATM    7  N   UNL     1       0.716   3.260   0.000  1.00  0.00    -0.093 N 
HETATM    8  O   UNL     1       2.015   2.510   0.000  1.00  0.00    -0.232 OA
HETATM    9  O   UNL     1       0.716   4.760   0.000  1.00  0.00    -0.057 OA
HETATM   10  C   UNL     1       0.716   0.260   0.000  1.00  0.00     0.058 A 
HETATM   11  C   UNL     1       2.015   1.010   0.000  1.00  0.00     0.177 A 
ENDROOT
BRANCH  11  12
HETATM   12  C   UNL     1       3.314   0.260   0.000  1.00  0.00     0.181 C 
BRANCH  12  13
HETATM   13  N   UNL     1       3.314  -1.240   0.000  1.00  0.00    -0.176 NA
BRANCH  13  14
HETATM   14  N   UNL     1       4.613  -1.990   0.000  1.00  0.00    -0.175 NA
BRANCH  14  15
HETATM   15  C   UNL     1       4.613  -3.490   0.000  1.00  0.00     0.173 C 
BRANCH  15  16
HETATM   16  C   UNL     1       5.912  -4.240   0.000  1.00  0.00     0.003 A 
HETATM   17  C   UNL     1       7.211  -3.490   0.000  1.00  0.00     0.026 A 
HETATM   18  C   UNL     1       8.510  -4.240   0.000  1.00  0.00     0.005 A 
HETATM   19  C   UNL     1       8.510  -5.740   0.000  1.00  0.00     0.007 A 
HETATM   20  C   UNL     1       7.211  -6.490   0.000  1.00  0.00     0.054 A 
HETATM   21  C   UNL     1       5.912  -5.740   0.000  1.00  0.00     0.102 A 
HETATM   22  O   UNL     1       4.613  -6.490   0.000  1.00  0.00    -0.195 OA
ENDBRANCH  15  16
ENDBRANCH  14  15
ENDBRANCH  13  14
ENDBRANCH  12  13
ENDBRANCH  11  12
TORSDOF 5
