REMARK  1 active torsions:
REMARK  status: ('A' for Active; 'I' for Inactive)
REMARK    1  A    between atoms: C_6  and  O_13 
ROOT
HETATM    1  N   UNL     1      -7.245  -0.750   0.000  1.00  0.00    -0.235 NA
HETATM    2  N   UNL     1      -4.647  -0.750   0.000  1.00  0.00    -0.208 NA
HETATM    3  C   UNL     1      -8.544  -1.500   0.000  1.00  0.00     0.043 A 
HETATM    4  C   UNL     1      -8.544  -3.000   0.000  1.00  0.00     0.063 A 
HETATM    5  C   UNL     1      -7.245  -3.750   0.000  1.00  0.00    -0.039 A 
HETATM    6  C   UNL     1      -3.348  -1.500   0.000  1.00  0.00     0.156 A 
HETATM    7  C   UNL     1      -3.348  -3.000   0.000  1.00  0.00     0.076 A 
HETATM    8  C   UNL     1      -4.647  -3.750   0.000  1.00  0.00     0.037 A 
HETATM    9  C   UNL     1      -5.946  -3.000   0.000  1.00  0.00     0.007 A 
HETATM   10  C   UNL     1      -5.946  -1.500   0.000  1.00  0.00     0.159 A 
HETATM   11  C   UNL     1      -9.843  -0.750   0.000  1.00  0.00     0.048 C 
HETATM   12  C   UNL     1      -7.245  -5.250   0.000  1.00  0.00     0.026 C 
ENDROOT
BRANCH   6  13
HETATM   13  O   UNL     1      -2.049  -0.750   0.000  1.00  0.00    -0.315 OA
HETATM   14  C   UNL     1      -0.750  -1.500   0.000  1.00  0.00     0.183 C 
ENDBRANCH   6  13
TORSDOF 1
