REMARK  1 active torsions:
REMARK  status: ('A' for Active; 'I' for Inactive)
REMARK    1  A    between atoms: C_4  and  C_14 
ROOT
HETATM    1  O   UNL     1      -2.268   7.739   0.000  1.00  0.00    -0.190 OA
HETATM    2  N   UNL     1       2.541   6.525   0.000  1.00  0.00    -0.152 NA
HETATM    3  N   UNL     1       2.078   5.098   0.000  1.00  0.00    -0.149 NA
HETATM    4  C   UNL     1       1.328   7.407   0.000  1.00  0.00     0.083 A 
HETATM    5  C   UNL     1       0.114   6.525   0.000  1.00  0.00     0.059 A 
HETATM    6  C   UNL     1      -1.386   6.525   0.000  1.00  0.00     0.129 A 
HETATM    7  C   UNL     1      -1.849   5.098   0.000  1.00  0.00     0.001 A 
HETATM    8  C   UNL     1      -3.220   4.488   0.000  1.00  0.00     0.028 A 
HETATM    9  C   UNL     1      -3.377   2.997   0.000  1.00  0.00     0.005 A 
HETATM   10  C   UNL     1       0.578   5.098   0.000  1.00  0.00     0.102 A 
HETATM   11  C   UNL     1      -0.636   4.217   0.000  1.00  0.00    -0.005 A 
HETATM   12  C   UNL     1      -2.163   2.115   0.000  1.00  0.00     0.005 A 
HETATM   13  C   UNL     1      -0.793   2.725   0.000  1.00  0.00     0.028 A 
ENDROOT
BRANCH   4  14
HETATM   14  C   UNL     1       1.328   8.907   0.000  1.00  0.00     0.037 C 
HETATM   15  C   UNL     1      -0.172   8.907   0.000  1.00  0.00     0.006 C 
HETATM   16  C   UNL     1       1.328  10.407   0.000  1.00  0.00     0.006 C 
HETATM   17  C   UNL     1       2.828   8.907   0.000  1.00  0.00     0.006 C 
ENDBRANCH   4  14
TORSDOF 1
