REMARK  4 active torsions:
REMARK  status: ('A' for Active; 'I' for Inactive)
REMARK    1  A    between atoms: C_7  and  C_9 
REMARK    2  A    between atoms: C_8  and  C_21 
REMARK    3  A    between atoms: C_13  and  C_15 
REMARK    4  A    between atoms: C_16  and  C_17 
ROOT
HETATM    1  C   UNL     1       4.293   7.680   0.000  1.00  0.00    -0.035 A 
HETATM    2  C   UNL     1       2.994   8.430   0.000  1.00  0.00     0.027 A 
HETATM    3  C   UNL     1       1.695   7.680   0.000  1.00  0.00     0.027 A 
HETATM    4  C   UNL     1       4.293   6.180   0.000  1.00  0.00     0.027 A 
HETATM    5  C   UNL     1       1.695   6.180   0.000  1.00  0.00    -0.035 A 
HETATM    6  C   UNL     1       2.994   5.430   0.000  1.00  0.00     0.027 A 
ENDROOT
BRANCH   1   7
HETATM    7  C   UNL     1       5.592   8.430   0.000  1.00  0.00     0.057 A 
HETATM    8  S   UNL     1       5.749   9.922   0.000  1.00  0.00     0.004 SA
HETATM    9  N   UNL     1       7.216  10.234   0.000  1.00  0.00    -0.036 NA
HETATM   10  N   UNL     1       7.966   8.935   0.000  1.00  0.00    -0.164 NA
HETATM   11  C   UNL     1       6.963   7.820   0.000  1.00  0.00     0.143 A 
BRANCH  11  12
HETATM   12  C   UNL     1       7.274   6.353   0.000  1.00  0.00     0.220 C 
HETATM   13  N   UNL     1       6.160   5.349   0.000  1.00  0.00    -0.069 NA
HETATM   14  O   UNL     1       8.701   5.890   0.000  1.00  0.00    -0.173 OA
ENDBRANCH  11  12
ENDBRANCH   1   7
BRANCH   5  15
HETATM   15  C   UNL     1       0.396   5.430   0.000  1.00  0.00     0.057 A 
HETATM   16  S   UNL     1      -0.974   6.040   0.000  1.00  0.00     0.004 SA
HETATM   17  N   UNL     1      -1.978   4.926   0.000  1.00  0.00    -0.036 NA
HETATM   18  N   UNL     1      -1.228   3.627   0.000  1.00  0.00    -0.164 NA
HETATM   19  C   UNL     1       0.239   3.939   0.000  1.00  0.00     0.143 A 
BRANCH  19  20
HETATM   20  C   UNL     1       1.354   2.935   0.000  1.00  0.00     0.220 C 
HETATM   21  O   UNL     1       1.042   1.468   0.000  1.00  0.00    -0.173 OA
HETATM   22  N   UNL     1       2.781   3.398   0.000  1.00  0.00    -0.069 NA
ENDBRANCH  19  20
ENDBRANCH   5  15
TORSDOF 4
