REMARK  2 active torsions:
REMARK  status: ('A' for Active; 'I' for Inactive)
REMARK    1  A    between atoms: C_5  and  C_14 
REMARK    2  A    between atoms: C_7  and  N_13 
REMARK       I    between atoms: N_13  and  C_14 
ROOT
HETATM    1  N   UNL     1      -2.923  -5.554   0.000  1.00  0.00    -0.201 NA
HETATM    2  C   UNL     1      -2.923  -4.054   0.000  1.00  0.00     0.230 C 
HETATM    3  O   UNL     1      -4.222  -3.304   0.000  1.00  0.00    -0.168 OA
ENDROOT
BRANCH   1   4
HETATM    4  C   UNL     1      -4.222  -6.304   0.000  1.00  0.00     0.152 A 
HETATM    5  N   UNL     1      -5.521  -5.554   0.000  1.00  0.00    -0.253 NA
HETATM    6  C   UNL     1      -6.820  -6.304   0.000  1.00  0.00     0.128 A 
HETATM    7  C   UNL     1      -6.820  -7.804   0.000  1.00  0.00     0.031 A 
HETATM    8  C   UNL     1      -5.521  -8.554   0.000  1.00  0.00     0.027 A 
HETATM    9  C   UNL     1      -4.222  -7.804   0.000  1.00  0.00    -0.008 A 
HETATM   10  C   UNL     1      -2.923  -8.554   0.000  1.00  0.00     0.029 C 
ENDBRANCH   1   4
BRANCH   2  11
HETATM   11  C   UNL     1      -1.624  -3.304   0.000  1.00  0.00     0.131 A 
HETATM   12  N   UNL     1      -1.467  -1.812   0.000  1.00  0.00    -0.168 NA
HETATM   13  N   UNL     1       0.000  -1.500   0.000  1.00  0.00    -0.041 NA
HETATM   14  S   UNL     1       0.750  -2.799   0.000  1.00  0.00    -0.017 SA
HETATM   15  C   UNL     1      -0.254  -3.914   0.000  1.00  0.00     0.128 A 
ENDBRANCH   2  11
TORSDOF 2
