REMARK  8 active torsions:
REMARK  status: ('A' for Active; 'I' for Inactive)
REMARK    1  A    between atoms: C_3  and  C_7 
REMARK    2  A    between atoms: C_6  and  C_12 
REMARK    3  A    between atoms: C_8  and  C_22 
REMARK    4  A    between atoms: C_16  and  C_17 
REMARK    5  A    between atoms: C_17  and  O_19 
REMARK    6  A    between atoms: O_19  and  C_20 
REMARK    7  A    between atoms: C_22  and  O_24 
REMARK    8  A    between atoms: O_24  and  C_25 
ROOT
HETATM    1  C   UNL     1       6.893   4.009   0.000  1.00  0.00     0.027 A 
HETATM    2  C   UNL     1       8.393   4.009   0.000  1.00  0.00     0.027 A 
HETATM    3  C   UNL     1       9.143   5.308   0.000  1.00  0.00    -0.035 A 
HETATM    4  C   UNL     1       8.393   6.607   0.000  1.00  0.00     0.027 A 
HETATM    5  C   UNL     1       6.893   6.607   0.000  1.00  0.00     0.027 A 
HETATM    6  C   UNL     1       6.143   5.308   0.000  1.00  0.00    -0.035 A 
ENDROOT
BRANCH   3   7
HETATM    7  C   UNL     1      10.643   5.308   0.000  1.00  0.00     0.058 A 
HETATM    8  C   UNL     1      11.524   4.094   0.000  1.00  0.00     0.152 A 
HETATM    9  N   UNL     1      12.951   4.558   0.000  1.00  0.00    -0.163 NA
HETATM   10  N   UNL     1      12.951   6.058   0.000  1.00  0.00    -0.036 NA
HETATM   11  S   UNL     1      11.524   6.521   0.000  1.00  0.00     0.004 SA
BRANCH   8  12
HETATM   12  C   UNL     1      11.061   2.668   0.000  1.00  0.00     0.248 C 
HETATM   13  O   UNL     1       9.594   2.356   0.000  1.00  0.00    -0.162 OA
BRANCH  12  14
HETATM   14  O   UNL     1      12.065   1.553   0.000  1.00  0.00    -0.308 OA
BRANCH  14  15
HETATM   15  C   UNL     1      13.532   1.865   0.000  1.00  0.00     0.151 C 
HETATM   16  C   UNL     1      14.536   0.750   0.000  1.00  0.00     0.035 C 
ENDBRANCH  14  15
ENDBRANCH  12  14
ENDBRANCH   8  12
ENDBRANCH   3   7
BRANCH   6  17
HETATM   17  C   UNL     1       4.643   5.308   0.000  1.00  0.00     0.058 A 
HETATM   18  S   UNL     1       3.761   6.521   0.000  1.00  0.00     0.004 SA
HETATM   19  N   UNL     1       2.334   6.058   0.000  1.00  0.00    -0.036 NA
HETATM   20  N   UNL     1       2.334   4.558   0.000  1.00  0.00    -0.163 NA
HETATM   21  C   UNL     1       3.761   4.094   0.000  1.00  0.00     0.152 A 
BRANCH  21  22
HETATM   22  C   UNL     1       4.225   2.668   0.000  1.00  0.00     0.248 C 
HETATM   23  O   UNL     1       5.692   2.356   0.000  1.00  0.00    -0.162 OA
BRANCH  22  24
HETATM   24  O   UNL     1       3.221   1.553   0.000  1.00  0.00    -0.308 OA
BRANCH  24  25
HETATM   25  C   UNL     1       1.754   1.865   0.000  1.00  0.00     0.151 C 
HETATM   26  C   UNL     1       0.750   0.750   0.000  1.00  0.00     0.035 C 
ENDBRANCH  24  25
ENDBRANCH  22  24
ENDBRANCH  21  22
ENDBRANCH   6  17
TORSDOF 8
