REMARK  3 active torsions:
REMARK  status: ('A' for Active; 'I' for Inactive)
REMARK    1  A    between atoms: N_1  and  C_11 
REMARK    2  A    between atoms: C_16  and  C_17 
REMARK    3  A    between atoms: C_19  and  C_20 
ROOT
HETATM    1  C   UNL     1      -2.873  -4.024   0.000  1.00  0.00     0.257 A 
HETATM    2  O   UNL     1      -4.172  -3.275   0.000  1.00  0.00    -0.281 OA
HETATM    3  N   UNL     1      -1.574  -3.275   0.000  1.00  0.00    -0.180 NA
HETATM    4  C   UNL     1      -1.574  -1.774   0.000  1.00  0.00     0.213 A 
HETATM    5  O   UNL     1      -0.275  -1.024   0.000  1.00  0.00    -0.169 OA
HETATM    6  C   UNL     1      -2.873  -1.024   0.000  1.00  0.00     0.040 A 
HETATM    7  C   UNL     1      -4.172  -1.774   0.000  1.00  0.00     0.080 A 
ENDROOT
BRANCH   1   8
HETATM    8  N   UNL     1      -2.873  -5.524   0.000  1.00  0.00    -0.298 N 
HETATM    9  C   UNL     1      -4.172  -6.274   0.000  1.00  0.00     0.032 A 
HETATM   10  C   UNL     1      -5.471  -5.524   0.000  1.00  0.00     0.043 A 
HETATM   11  C   UNL     1      -4.172  -7.774   0.000  1.00  0.00    -0.032 A 
HETATM   12  C   UNL     1      -6.770  -6.274   0.000  1.00  0.00     0.006 A 
HETATM   13  C   UNL     1      -6.770  -7.774   0.000  1.00  0.00     0.005 A 
HETATM   14  C   UNL     1      -5.471  -8.524   0.000  1.00  0.00     0.023 A 
HETATM   15  C   UNL     1      -2.873  -8.524   0.000  1.00  0.00     0.025 A 
HETATM   16  C   UNL     1      -1.573  -7.774   0.000  1.00  0.00     0.029 A 
HETATM   17  C   UNL     1      -1.573  -6.274   0.000  1.00  0.00     0.110 A 
ENDBRANCH   1   8
BRANCH   7  18
HETATM   18  C   UNL     1      -5.471  -1.024   0.000  1.00  0.00     0.051 C 
HETATM   19  C   UNL     1      -5.471   0.475   0.000  1.00  0.00     0.007 C 
ENDBRANCH   7  18
BRANCH   6  20
HETATM   20  C   UNL     1      -2.873   0.475   0.000  1.00  0.00     0.032 C 
HETATM   21  C   UNL     1      -1.574   1.226   0.000  1.00  0.00     0.005 C 
ENDBRANCH   6  20
TORSDOF 3
