REMARK  2 active torsions:
REMARK  status: ('A' for Active; 'I' for Inactive)
REMARK    1  A    between atoms: C_5  and  C_12 
REMARK    2  A    between atoms: C_12  and  C_13 
ROOT
HETATM    1  N   UNL     1      -6.808  -2.640   0.000  1.00  0.00    -0.273 N 
HETATM    2  N   UNL     1      -6.808  -4.140   0.000  1.00  0.00    -0.248 N 
HETATM    3  O   UNL     1      -4.918  -6.030   0.000  1.00  0.00    -0.170 OA
HETATM    4  C   UNL     1      -5.382  -2.177   0.000  1.00  0.00     0.054 A 
HETATM    5  C   UNL     1      -4.500  -3.390   0.000  1.00  0.00     0.037 A 
HETATM    6  C   UNL     1      -5.382  -4.604   0.000  1.00  0.00     0.206 A 
HETATM    7  C   UNL     1      -8.107  -1.890   0.000  1.00  0.00     0.125 A 
HETATM    8  C   UNL     1      -9.406  -2.640   0.000  1.00  0.00     0.028 A 
HETATM    9  C   UNL     1      -9.406  -4.140   0.000  1.00  0.00     0.029 A 
HETATM   10  C   UNL     1      -8.107  -4.890   0.000  1.00  0.00     0.128 A 
HETATM   11  C   UNL     1      -4.918  -0.750   0.000  1.00  0.00     0.051 C 
ENDROOT
BRANCH   5  12
HETATM   12  C   UNL     1      -3.000  -3.390   0.000  1.00  0.00     0.067 C 
BRANCH  12  13
HETATM   13  C   UNL     1      -2.250  -4.689   0.000  1.00  0.00     0.187 C 
HETATM   14  O   UNL     1      -0.750  -4.689   0.000  1.00  0.00    -0.220 OA
ENDBRANCH  12  13
ENDBRANCH   5  12
TORSDOF 2
