REMARK  2 active torsions:
REMARK  status: ('A' for Active; 'I' for Inactive)
REMARK    1  A    between atoms: O_1  and  C_11 
REMARK    2  A    between atoms: C_13  and  C_15 
ROOT
HETATM    1  O   UNL     1       3.522  -4.399   0.000  1.00  0.00     0.000 OA
HETATM    2  O   UNL     1       5.820  -2.471   0.000  1.00  0.00    -0.335 OA
HETATM    3  C   UNL     1       4.932  -4.912   0.000  1.00  0.00    -0.006 A 
HETATM    4  C   UNL     1       6.081  -3.948   0.000  1.00  0.00     0.067 A 
HETATM    5  C   UNL     1       5.192  -6.390   0.000  1.00  0.00     0.028 A 
HETATM    6  C   UNL     1       6.602  -6.903   0.000  1.00  0.00     0.005 A 
HETATM    7  C   UNL     1       7.490  -4.461   0.000  1.00  0.00     0.051 A 
HETATM    8  C   UNL     1       7.751  -5.939   0.000  1.00  0.00     0.007 A 
HETATM    9  C   UNL     1       3.262  -2.922   0.000  1.00  0.00     0.035 A 
HETATM   10  C   UNL     1       4.411  -1.958   0.000  1.00  0.00     0.148 A 
ENDROOT
BRANCH   1  11
HETATM   11  C   UNL     1       2.223  -5.149   0.000  1.00  0.00    -0.052 A 
HETATM   12  C   UNL     1       0.924  -4.399   0.000  1.00  0.00     0.022 A 
HETATM   13  C   UNL     1      -0.375  -5.149   0.000  1.00  0.00     0.015 A 
HETATM   14  C   UNL     1      -0.375  -6.649   0.000  1.00  0.00     0.088 A 
HETATM   15  C   UNL     1       0.924  -7.399   0.000  1.00  0.00     0.015 A 
HETATM   16  C   UNL     1       2.223  -6.649   0.000  1.00  0.00     0.022 A 
BRANCH  14  17
HETATM   17  C   UNL     1      -1.674  -7.399   0.000  1.00  0.00     0.185 C 
HETATM   18  O   UNL     1      -2.973  -6.649   0.000  1.00  0.00    -0.647 OA
HETATM   19  O   UNL     1      -1.674  -8.899   0.000  1.00  0.00    -0.647 OA
ENDBRANCH  14  17
ENDBRANCH   1  11
TORSDOF 2
