REMARK  3 active torsions:
REMARK  status: ('A' for Active; 'I' for Inactive)
REMARK    1  A    between atoms: O_1  and  C_11 
REMARK    2  A    between atoms: C_6  and  N_21 
REMARK    3  A    between atoms: C_13  and  N_18 
REMARK       I    between atoms: C_15  and  N_18 
ROOT
HETATM    1  O   UNL     1       3.037  -2.059   0.000  1.00  0.00     0.000 OA
HETATM    2  O   UNL     1       0.589  -3.344   0.000  1.00  0.00    -0.335 OA
HETATM    3  C   UNL     1       3.187  -3.344   0.000  1.00  0.00    -0.000 A 
HETATM    4  C   UNL     1       4.486  -4.094   0.000  1.00  0.00     0.073 A 
HETATM    5  C   UNL     1       1.888  -4.094   0.000  1.00  0.00     0.068 A 
HETATM    6  C   UNL     1       4.486  -5.594   0.000  1.00  0.00     0.087 A 
HETATM    7  C   UNL     1       1.888  -5.594   0.000  1.00  0.00     0.057 A 
HETATM    8  C   UNL     1       3.187  -6.344   0.000  1.00  0.00     0.053 A 
HETATM    9  C   UNL     1       1.888  -1.094   0.000  1.00  0.00     0.035 A 
HETATM   10  C   UNL     1       0.589  -1.844   0.000  1.00  0.00     0.148 A 
ENDROOT
BRANCH   1  11
HETATM   11  C   UNL     1       4.446  -1.546   0.000  1.00  0.00    -0.051 A 
HETATM   12  C   UNL     1       4.707  -0.068   0.000  1.00  0.00     0.027 A 
HETATM   13  C   UNL     1       6.116   0.445   0.000  1.00  0.00     0.046 A 
HETATM   14  C   UNL     1       7.265  -0.519   0.000  1.00  0.00     0.039 A 
HETATM   15  C   UNL     1       7.005  -1.997   0.000  1.00  0.00     0.046 A 
HETATM   16  C   UNL     1       5.595  -2.510   0.000  1.00  0.00     0.027 A 
BRANCH  14  17
HETATM   17  N   UNL     1       8.675  -0.006   0.000  1.00  0.00    -0.232 NA
HETATM   18  C   UNL     1       8.935   1.471   0.000  1.00  0.00     0.189 C 
HETATM   19  O   UNL     1       7.786   2.435   0.000  1.00  0.00    -0.174 OA
HETATM   20  C   UNL     1      10.345   1.984   0.000  1.00  0.00     0.083 C 
ENDBRANCH  14  17
ENDBRANCH   1  11
BRANCH   6  21
HETATM   21  N   UNL     1       5.785  -6.344   0.000  1.00  0.00    -0.122 N 
HETATM   22  O   UNL     1       7.084  -5.594   0.000  1.00  0.00    -0.532 OA
HETATM   23  O   UNL     1       5.785  -7.844   0.000  1.00  0.00    -0.532 OA
ENDBRANCH   6  21
TORSDOF 3
