REMARK  4 active torsions:
REMARK  status: ('A' for Active; 'I' for Inactive)
REMARK    1  A    between atoms: N_2  and  C_8 
REMARK    2  A    between atoms: N_3  and  C_12 
REMARK    3  A    between atoms: C_8  and  C_9 
REMARK    4  A    between atoms: C_12  and  C_13 
ROOT
HETATM    1  O   UNL     1       2.195   8.226   0.000  1.00  0.00    -0.174 OA
HETATM    2  N   UNL     1       2.945   4.417   0.000  1.00  0.00    -0.260 N 
HETATM    3  N   UNL     1       3.408   5.844   0.000  1.00  0.00    -0.234 N 
HETATM    4  C   UNL     1       2.195   6.726   0.000  1.00  0.00     0.195 A 
HETATM    5  C   UNL     1       0.981   5.844   0.000  1.00  0.00     0.116 A 
HETATM    6  C   UNL     1       1.444   4.417   0.000  1.00  0.00     0.045 A 
HETATM    7  C   UNL     1       0.563   3.204   0.000  1.00  0.00     0.048 C 
ENDROOT
BRANCH   2   8
HETATM    8  C   UNL     1       3.826   3.204   0.000  1.00  0.00     0.036 C 
HETATM    9  C   UNL     1       5.318   3.361   0.000  1.00  0.00     0.047 C 
BRANCH   8  10
HETATM   10  C   UNL     1       3.216   1.834   0.000  1.00  0.00     0.041 C 
HETATM   11  C   UNL     1       1.724   1.677   0.000  1.00  0.00     0.006 C 
ENDBRANCH   8  10
ENDBRANCH   2   8
BRANCH   3  12
HETATM   12  C   UNL     1       4.835   6.308   0.000  1.00  0.00     0.039 C 
HETATM   13  C   UNL     1       5.146   7.775   0.000  1.00  0.00     0.047 C 
BRANCH  12  14
HETATM   14  C   UNL     1       5.949   5.304   0.000  1.00  0.00     0.041 C 
HETATM   15  C   UNL     1       7.376   5.767   0.000  1.00  0.00     0.006 C 
ENDBRANCH  12  14
ENDBRANCH   3  12
TORSDOF 4
