REMARK  4 active torsions:
REMARK  status: ('A' for Active; 'I' for Inactive)
REMARK    1  A    between atoms: O_1  and  C_11 
REMARK    2  A    between atoms: C_3  and  C_11 
REMARK    3  A    between atoms: C_6  and  N_8 
REMARK    4  A    between atoms: C_16  and  C_19 
ROOT
HETATM    1  C   UNL     1       5.471   5.524   0.000  1.00  0.00     0.148 C 
HETATM    2  O   UNL     1       5.471   7.024   0.000  1.00  0.00    -0.189 OA
ENDROOT
BRANCH   1   3
HETATM    3  O   UNL     1       6.770   4.774   0.000  1.00  0.00     0.000 OA
HETATM    4  C   UNL     1       7.919   5.739   0.000  1.00  0.00     0.028 A 
HETATM    5  C   UNL     1       9.328   5.226   0.000  1.00  0.00     0.125 A 
HETATM    6  N   UNL     1       9.589   3.748   0.000  1.00  0.00    -0.275 NA
HETATM    7  C   UNL     1       8.440   2.784   0.000  1.00  0.00     0.050 A 
HETATM    8  C   UNL     1       7.030   3.297   0.000  1.00  0.00    -0.011 A 
HETATM    9  C   UNL     1       5.881   2.333   0.000  1.00  0.00     0.032 C 
BRANCH   7  10
HETATM   10  C   UNL     1       8.700   1.307   0.000  1.00  0.00     0.045 C 
HETATM   11  C   UNL     1       7.551   0.343   0.000  1.00  0.00     0.007 C 
ENDBRANCH   7  10
ENDBRANCH   1   3
BRANCH   1  12
HETATM   12  C   UNL     1       4.172   4.774   0.000  1.00  0.00    -0.016 A 
HETATM   13  C   UNL     1       2.873   5.524   0.000  1.00  0.00     0.030 A 
HETATM   14  C   UNL     1       1.573   4.774   0.000  1.00  0.00     0.050 A 
HETATM   15  C   UNL     1       1.573   3.275   0.000  1.00  0.00     0.083 A 
HETATM   16  C   UNL     1       2.873   2.525   0.000  1.00  0.00     0.050 A 
HETATM   17  C   UNL     1       4.172   3.275   0.000  1.00  0.00     0.030 A 
BRANCH  15  18
HETATM   18  N   UNL     1       0.275   2.525   0.000  1.00  0.00    -0.122 N 
HETATM   19  O   UNL     1      -1.024   3.275   0.000  1.00  0.00    -0.532 OA
HETATM   20  O   UNL     1       0.275   1.024   0.000  1.00  0.00    -0.532 OA
ENDBRANCH  15  18
ENDBRANCH   1  12
TORSDOF 4
