REMARK  2 active torsions:
REMARK  status: ('A' for Active; 'I' for Inactive)
REMARK    1  A    between atoms: N_4  and  C_14 
REMARK    2  A    between atoms: C_11  and  C_18 
ROOT
HETATM    1  N   UNL     1       2.324  -1.024   0.000  1.00  0.00    -0.229 NA
HETATM    2  N   UNL     1       3.623  -3.275   0.000  1.00  0.00    -0.226 NA
HETATM    3  N   UNL     1       6.348  -0.561   0.000  1.00  0.00    -0.240 NA
HETATM    4  N   UNL     1       6.348  -2.988   0.000  1.00  0.00    -0.270 N 
HETATM    5  C   UNL     1       3.623  -0.275   0.000  1.00  0.00     0.168 A 
HETATM    6  C   UNL     1       4.922  -1.024   0.000  1.00  0.00     0.143 A 
HETATM    7  C   UNL     1       4.922  -2.525   0.000  1.00  0.00     0.164 A 
HETATM    8  C   UNL     1       7.230  -1.774   0.000  1.00  0.00     0.238 A 
HETATM    9  C   UNL     1       2.324  -2.525   0.000  1.00  0.00     0.253 A 
HETATM   10  N   UNL     1       3.623   1.226   0.000  1.00  0.00    -0.078 NA
ENDROOT
BRANCH   4  11
HETATM   11  C   UNL     1       6.812  -4.415   0.000  1.00  0.00     0.181 A 
HETATM   12  O   UNL     1       8.238  -4.878   0.000  1.00  0.00    -0.289 OA
HETATM   13  C   UNL     1       8.238  -6.378   0.000  1.00  0.00     0.139 A 
HETATM   14  C   UNL     1       6.812  -6.842   0.000  1.00  0.00     0.169 A 
HETATM   15  C   UNL     1       5.930  -5.628   0.000  1.00  0.00     0.137 A 
HETATM   16  O   UNL     1       6.348  -8.268   0.000  1.00  0.00    -0.187 OA
HETATM   17  N   UNL     1       4.430  -5.628   0.000  1.00  0.00    -0.095 NA
BRANCH  13  18
HETATM   18  C   UNL     1       9.452  -7.260   0.000  1.00  0.00     0.235 C 
HETATM   19  O   UNL     1       9.295  -8.752   0.000  1.00  0.00    -0.213 OA
ENDBRANCH  13  18
ENDBRANCH   4  11
TORSDOF 2
