REMARK  1 active torsions:
REMARK  status: ('A' for Active; 'I' for Inactive)
REMARK    1  A    between atoms: C_15  and  O_19 
ROOT
HETATM    1  N   UNL     1       6.120   5.899   0.000  1.00  0.00    -0.321 N 
HETATM    2  N   UNL     1       7.419   8.149   0.000  1.00  0.00    -0.300 N 
HETATM    3  O   UNL     1       9.309  10.040   0.000  1.00  0.00    -0.176 OA
HETATM    4  C   UNL     1       8.846   8.613   0.000  1.00  0.00     0.172 A 
HETATM    5  C   UNL     1       9.727   7.399   0.000  1.00  0.00     0.081 A 
HETATM    6  C   UNL     1       8.846   6.186   0.000  1.00  0.00     0.071 A 
HETATM    7  C   UNL     1       7.419   6.649   0.000  1.00  0.00     0.102 A 
HETATM    8  C   UNL     1       6.120   8.899   0.000  1.00  0.00     0.115 A 
HETATM    9  C   UNL     1       4.821   8.149   0.000  1.00  0.00     0.068 A 
HETATM   10  C   UNL     1       4.821   6.649   0.000  1.00  0.00     0.035 A 
HETATM   11  C   UNL     1       3.522   5.899   0.000  1.00  0.00    -0.018 A 
HETATM   12  C   UNL     1       2.223   6.649   0.000  1.00  0.00     0.029 A 
HETATM   13  C   UNL     1       0.924   5.899   0.000  1.00  0.00     0.035 A 
HETATM   14  C   UNL     1       3.522   4.399   0.000  1.00  0.00    -0.043 A 
HETATM   15  C   UNL     1       0.924   4.399   0.000  1.00  0.00     0.120 A 
HETATM   16  C   UNL     1       2.223   3.650   0.000  1.00  0.00     0.051 A 
HETATM   17  C   UNL     1       4.821   3.650   0.000  1.00  0.00     0.046 A 
HETATM   18  C   UNL     1       6.120   4.399   0.000  1.00  0.00     0.111 A 
ENDROOT
BRANCH  15  19
HETATM   19  O   UNL     1      -0.375   3.650   0.000  1.00  0.00    -0.354 OA
HETATM   20  C   UNL     1      -1.674   4.399   0.000  1.00  0.00     0.174 C 
ENDBRANCH  15  19
TORSDOF 1
