REMARK  0 active torsions:
REMARK  status: ('A' for Active; 'I' for Inactive)
ROOT
HETATM    1  C   UNL     1      -2.310  -8.098   0.000  1.00  0.00     0.307 A 
HETATM    2  C   UNL     1      -1.560  -6.800   0.000  1.00  0.00     0.065 A 
HETATM    3  C   UNL     1      -1.560  -9.398   0.000  1.00  0.00     0.044 A 
HETATM    4  C   UNL     1      -0.060  -6.800   0.000  1.00  0.00    -0.026 A 
HETATM    5  C   UNL     1      -0.060  -9.398   0.000  1.00  0.00     0.030 A 
HETATM    6  C   UNL     1       0.690  -8.098   0.000  1.00  0.00     0.001 A 
HETATM    7  C   UNL     1       2.190  -8.098   0.000  1.00  0.00     0.151 A 
HETATM    8  O   UNL     1       2.940  -9.398   0.000  1.00  0.00    -0.188 OA
HETATM    9  O   UNL     1       4.440  -6.800   0.000  1.00  0.00    -0.188 OA
HETATM   10  C   UNL     1       2.940  -6.800   0.000  1.00  0.00     0.151 A 
HETATM   11  C   UNL     1       2.190  -5.500   0.000  1.00  0.00     0.001 A 
HETATM   12  C   UNL     1       2.940  -4.201   0.000  1.00  0.00     0.030 A 
HETATM   13  C   UNL     1       0.690  -5.500   0.000  1.00  0.00    -0.026 A 
HETATM   14  C   UNL     1       2.190  -2.902   0.000  1.00  0.00     0.044 A 
HETATM   15  C   UNL     1      -0.060  -4.201   0.000  1.00  0.00     0.065 A 
HETATM   16  C   UNL     1       0.690  -2.902   0.000  1.00  0.00     0.307 A 
HETATM   17  N   UNL     1      -3.810  -8.098   0.000  1.00  0.00     0.616 N 
HETATM   18  N   UNL     1      -0.060  -1.603   0.000  1.00  0.00     0.616 N 
ENDROOT
TORSDOF 0
