REMARK  0 active torsions:
REMARK  status: ('A' for Active; 'I' for Inactive)
ROOT
HETATM    1  O   UNL     1       9.771   4.740   0.000  1.00  0.00    -0.296 OA
HETATM    2  N   UNL     1       9.944   7.226   0.000  1.00  0.00    -0.299 N 
HETATM    3  N   UNL     1       9.797  11.811   0.000  1.00  0.00    -0.250 NA
HETATM    4  O   UNL     1      13.898   6.925   0.000  1.00  0.00    -0.305 OA
HETATM    5  C   UNL     1      11.925   5.964   0.000  1.00  0.00     0.044 A 
HETATM    6  C   UNL     1      10.575   6.012   0.000  1.00  0.00     0.165 A 
HETATM    7  C   UNL     1      12.633   7.197   0.000  1.00  0.00     0.101 A 
HETATM    8  C   UNL     1      11.983   8.360   0.000  1.00  0.00     0.035 A 
HETATM    9  C   UNL     1      12.713   9.500   0.000  1.00  0.00    -0.001 A 
HETATM   10  C   UNL     1      14.885   7.718   0.000  1.00  0.00     0.122 A 
HETATM   11  C   UNL     1      14.889   8.921   0.000  1.00  0.00     0.024 A 
HETATM   12  C   UNL     1      13.953   9.673   0.000  1.00  0.00    -0.001 A 
HETATM   13  C   UNL     1      12.684  12.182   0.000  1.00  0.00     0.107 A 
HETATM   14  C   UNL     1      10.593   8.429   0.000  1.00  0.00     0.049 A 
HETATM   15  C   UNL     1      12.020  10.711   0.000  1.00  0.00     0.003 A 
HETATM   16  C   UNL     1       9.999   9.526   0.000  1.00  0.00     0.068 A 
HETATM   17  C   UNL     1      10.678  10.755   0.000  1.00  0.00     0.017 A 
HETATM   18  C   UNL     1       8.642   9.864   0.000  1.00  0.00     0.030 A 
HETATM   19  C   UNL     1       8.440   9.240   0.000  1.00  0.00     0.041 A 
HETATM   20  C   UNL     1       7.064   6.874   0.000  1.00  0.00     0.040 A 
HETATM   21  C   UNL     1       5.689   7.677   0.000  1.00  0.00     0.006 A 
HETATM   22  C   UNL     1       8.440   7.677   0.000  1.00  0.00     0.021 A 
HETATM   23  C   UNL     1       5.689   9.240   0.000  1.00  0.00     0.001 A 
HETATM   24  C   UNL     1       7.064  10.040   0.000  1.00  0.00     0.008 A 
HETATM   25  C   UNL     1       8.521  11.287   0.000  1.00  0.00     0.078 A 
HETATM   26  C   UNL     1      11.881   3.358   0.000  1.00  0.00    -0.021 A 
HETATM   27  C   UNL     1      12.612   2.043   0.000  1.00  0.00     0.024 A 
HETATM   28  C   UNL     1      11.838   0.752   0.000  1.00  0.00     0.005 A 
HETATM   29  C   UNL     1      10.334   0.777   0.000  1.00  0.00     0.007 A 
HETATM   30  C   UNL     1       9.603   2.093   0.000  1.00  0.00     0.051 A 
HETATM   31  C   UNL     1      10.377   3.383   0.000  1.00  0.00     0.072 A 
HETATM   32  C   UNL     1      12.655   4.649   0.000  1.00  0.00     0.056 A 
ENDROOT
TORSDOF 0
