REMARK  6 active torsions:
REMARK  status: ('A' for Active; 'I' for Inactive)
REMARK    1  A    between atoms: N_4  and  C_11 
REMARK    2  A    between atoms: O_6  and  C_13 
REMARK    3  A    between atoms: O_6  and  C_18 
REMARK    4  A    between atoms: C_18  and  C_19 
REMARK    5  A    between atoms: C_19  and  C_20 
REMARK    6  A    between atoms: C_20  and  C_21 
ROOT
HETATM    1  C   UNL     1       0.375   8.149   0.000  1.00  0.00     0.042 A 
HETATM    2  C   UNL     1       0.375   6.649   0.000  1.00  0.00     0.023 A 
HETATM    3  C   UNL     1       1.674   8.899   0.000  1.00  0.00     0.035 A 
HETATM    4  C   UNL     1       2.973   8.149   0.000  1.00  0.00     0.116 A 
HETATM    5  C   UNL     1       1.674   5.899   0.000  1.00  0.00     0.042 A 
HETATM    6  C   UNL     1       2.973   6.649   0.000  1.00  0.00     0.035 A 
ENDROOT
BRANCH   2   7
HETATM    7  N   UNL     1      -0.924   5.899   0.000  1.00  0.00    -0.272 N 
HETATM    8  C   UNL     1      -2.223   6.649   0.000  1.00  0.00     0.193 A 
HETATM    9  O   UNL     1      -2.223   8.149   0.000  1.00  0.00    -0.171 OA
HETATM   10  C   UNL     1      -3.522   5.899   0.000  1.00  0.00     0.021 A 
HETATM   11  C   UNL     1      -3.522   4.399   0.000  1.00  0.00     0.126 A 
HETATM   12  C   UNL     1      -4.821   6.649   0.000  1.00  0.00     0.032 C 
HETATM   13  N   UNL     1      -2.223   3.650   0.000  1.00  0.00    -0.348 N 
HETATM   14  C   UNL     1      -0.924   4.399   0.000  1.00  0.00     0.181 A 
HETATM   15  H   UNL     1      -2.223   2.150   0.000  1.00  0.00     0.163 HD
HETATM   16  S   UNL     1       0.375   3.650   0.000  1.00  0.00    -0.040 SA
ENDBRANCH   2   7
BRANCH   4  17
HETATM   17  O   UNL     1       4.272   8.899   0.000  1.00  0.00    -0.357 OA
BRANCH  17  18
HETATM   18  C   UNL     1       4.272  10.399   0.000  1.00  0.00     0.142 C 
BRANCH  18  19
HETATM   19  C   UNL     1       2.973  11.149   0.000  1.00  0.00     0.032 C 
BRANCH  19  20
HETATM   20  C   UNL     1       2.973  12.649   0.000  1.00  0.00     0.003 C 
BRANCH  20  21
HETATM   21  C   UNL     1       1.674  13.399   0.000  1.00  0.00     0.000 C 
HETATM   22  C   UNL     1       1.674  14.899   0.000  1.00  0.00     0.000 C 
ENDBRANCH  20  21
ENDBRANCH  19  20
ENDBRANCH  18  19
ENDBRANCH  17  18
ENDBRANCH   4  17
TORSDOF 6
