REMARK  1 active torsions:
REMARK  status: ('A' for Active; 'I' for Inactive)
REMARK    1  A    between atoms: C_10  and  C_12 
ROOT
HETATM    1  N   UNL     1       1.108   7.920   0.000  1.00  0.00    -0.269 NA
HETATM    2  C   UNL     1      -1.490   7.920   0.000  1.00  0.00     0.126 A 
HETATM    3  C   UNL     1      -2.789   7.170   0.000  1.00  0.00     0.060 A 
HETATM    4  C   UNL     1      -0.191   7.170   0.000  1.00  0.00     0.093 A 
HETATM    5  C   UNL     1      -0.191   5.670   0.000  1.00  0.00    -0.009 A 
HETATM    6  C   UNL     1      -2.789   5.670   0.000  1.00  0.00     0.031 A 
HETATM    7  C   UNL     1       1.108   4.920   0.000  1.00  0.00     0.029 A 
HETATM    8  C   UNL     1       2.407   7.170   0.000  1.00  0.00     0.126 A 
HETATM    9  C   UNL     1       2.407   5.670   0.000  1.00  0.00     0.031 A 
HETATM   10  C   UNL     1      -1.490   4.920   0.000  1.00  0.00    -0.014 A 
HETATM   11  O   UNL     1      -1.490   9.419   0.000  1.00  0.00    -0.193 OA
ENDROOT
BRANCH  10  12
HETATM   12  C   UNL     1      -1.490   3.420   0.000  1.00  0.00     0.204 C 
HETATM   13  O   UNL     1      -2.789   2.670   0.000  1.00  0.00    -0.216 OA
ENDBRANCH  10  12
TORSDOF 1
