REMARK  3 active torsions:
REMARK  status: ('A' for Active; 'I' for Inactive)
REMARK    1  A    between atoms: N_3  and  C_5 
REMARK    2  A    between atoms: C_5  and  C_7 
REMARK    3  A    between atoms: C_10  and  C_11 
ROOT
HETATM    1  O   UNL     1      -7.927  -7.500   0.000  1.00  0.00    -0.175 OA
HETATM    2  N   UNL     1      -6.628  -5.250   0.000  1.00  0.00    -0.301 N 
HETATM    3  N   UNL     1      -3.903  -1.036   0.000  1.00  0.00    -0.274 NA
HETATM    4  C   UNL     1      -6.628  -0.750   0.000  1.00  0.00     0.022 A 
HETATM    5  C   UNL     1      -5.329  -1.500   0.000  1.00  0.00     0.064 A 
HETATM    6  C   UNL     1      -7.927  -1.500   0.000  1.00  0.00     0.036 A 
HETATM    7  C   UNL     1      -5.329  -3.000   0.000  1.00  0.00     0.060 A 
HETATM    8  C   UNL     1      -7.927  -3.000   0.000  1.00  0.00    -0.031 A 
HETATM    9  C   UNL     1      -4.269  -4.061   0.000  1.00  0.00     0.039 A 
HETATM   10  C   UNL     1      -3.903  -3.463   0.000  1.00  0.00     0.027 A 
HETATM   11  C   UNL     1      -3.021  -2.250   0.000  1.00  0.00     0.072 A 
HETATM   12  C   UNL     1      -6.628  -3.750   0.000  1.00  0.00     0.036 A 
HETATM   13  C   UNL     1      -9.226  -3.750   0.000  1.00  0.00     0.032 A 
HETATM   14  C   UNL     1      -2.769  -4.061   0.000  1.00  0.00     0.007 A 
HETATM   15  C   UNL     1      -2.019  -5.360   0.000  1.00  0.00     0.001 A 
HETATM   16  C   UNL     1      -2.769  -6.659   0.000  1.00  0.00     0.006 A 
HETATM   17  C   UNL     1      -5.019  -5.360   0.000  1.00  0.00     0.020 A 
HETATM   18  C   UNL     1      -9.226  -5.250   0.000  1.00  0.00     0.077 A 
HETATM   19  C   UNL     1      -4.269  -6.659   0.000  1.00  0.00     0.040 A 
HETATM   20  C   UNL     1      -7.927  -6.000   0.000  1.00  0.00     0.174 A 
HETATM   21  C   UNL     1      -4.785  -2.250   0.000  1.00  0.00     0.068 A 
HETATM   22  O   UNL     1      -5.305  -0.843   0.000  1.00  0.00     0.000 OA
ENDROOT
TORSDOF 3
