REMARK  2 active torsions:
REMARK  status: ('A' for Active; 'I' for Inactive)
REMARK    1  A    between atoms: N_2  and  S_14 
REMARK    2  A    between atoms: C_8  and  S_14 
ROOT
HETATM    1  S   UNL     1      -5.772  -2.250   0.000  1.00  0.00     0.259 S 
HETATM    2  O   UNL     1      -5.772  -0.750   0.000  1.00  0.00    -0.203 OA
HETATM    3  O   UNL     1      -5.772  -3.750   0.000  1.00  0.00    -0.203 OA
ENDROOT
BRANCH   1   4
HETATM    4  N   UNL     1      -4.272  -2.250   0.000  1.00  0.00    -0.200 N 
HETATM    5  N   UNL     1      -3.390  -3.463   0.000  1.00  0.00    -0.278 N 
HETATM    6  H   UNL     1      -3.854  -4.890   0.000  1.00  0.00     0.189 HD
HETATM    7  C   UNL     1      -1.964  -3.000   0.000  1.00  0.00     0.122 A 
HETATM    8  C   UNL     1      -1.964  -1.500   0.000  1.00  0.00     0.087 A 
HETATM    9  N   UNL     1      -0.750  -3.882   0.000  1.00  0.00    -0.085 NA
HETATM   10  C   UNL     1      -3.390  -1.036   0.000  1.00  0.00     0.145 A 
ENDBRANCH   1   4
BRANCH   1  11
HETATM   11  C   UNL     1      -7.272  -2.250   0.000  1.00  0.00     0.129 A 
HETATM   12  C   UNL     1      -8.022  -0.951   0.000  1.00  0.00     0.018 A 
HETATM   13  C   UNL     1      -9.522  -0.951   0.000  1.00  0.00     0.001 A 
HETATM   14  C   UNL     1     -10.272  -2.250   0.000  1.00  0.00     0.000 A 
HETATM   15  C   UNL     1      -9.522  -3.549   0.000  1.00  0.00     0.001 A 
HETATM   16  C   UNL     1     -11.772  -2.250   0.000  1.00  0.00     0.000 C 
HETATM   17  C   UNL     1      -8.022  -3.549   0.000  1.00  0.00     0.018 A 
ENDBRANCH   1  11
TORSDOF 2
