REMARK  0 active torsions:
REMARK  status: ('A' for Active; 'I' for Inactive)
ROOT
HETATM    1  C   UNL     1       1.208   4.315   0.000  1.00  0.00     0.007 A 
HETATM    2  C   UNL     1       1.364   2.823   0.000  1.00  0.00     0.007 A 
HETATM    3  C   UNL     1       2.421   5.197   0.000  1.00  0.00     0.047 A 
HETATM    4  C   UNL     1       2.735   2.213   0.000  1.00  0.00     0.045 A 
HETATM    5  C   UNL     1       3.792   4.587   0.000  1.00  0.00     0.072 A 
HETATM    6  C   UNL     1       3.948   3.095   0.000  1.00  0.00     0.058 A 
HETATM    7  N   UNL     1       5.415   2.783   0.000  1.00  0.00    -0.279 N 
HETATM    8  N   UNL     1       5.162   5.197   0.000  1.00  0.00    -0.234 NA
HETATM    9  O   UNL     1       5.415   0.185   0.000  1.00  0.00    -0.174 OA
HETATM   10  C   UNL     1       6.165   1.484   0.000  1.00  0.00     0.187 A 
HETATM   11  C   UNL     1       6.165   4.082   0.000  1.00  0.00     0.136 A 
HETATM   12  C   UNL     1       7.665   4.082   0.000  1.00  0.00     0.122 A 
HETATM   13  C   UNL     1       7.665   1.484   0.000  1.00  0.00     0.131 A 
HETATM   14  S   UNL     1       8.415   2.783   0.000  1.00  0.00    -0.123 SA
ENDROOT
TORSDOF 0
