REMARK  2 active torsions:
REMARK  status: ('A' for Active; 'I' for Inactive)
REMARK    1  A    between atoms: C_7  and  S_14 
REMARK       I    between atoms: C_10  and  N_13 
REMARK    2  A    between atoms: N_13  and  S_14 
ROOT
HETATM    1  S   UNL     1      -3.132  -1.036   0.000  1.00  0.00    -0.093 SA
HETATM    2  N   UNL     1      -3.132  -3.463   0.000  1.00  0.00    -0.266 NA
HETATM    3  C   UNL     1      -5.857  -0.750   0.000  1.00  0.00     0.035 A 
HETATM    4  C   UNL     1      -4.558  -1.500   0.000  1.00  0.00     0.018 A 
HETATM    5  C   UNL     1      -7.156  -1.500   0.000  1.00  0.00     0.024 A 
HETATM    6  C   UNL     1      -4.558  -3.000   0.000  1.00  0.00     0.057 A 
HETATM    7  C   UNL     1      -7.156  -3.000   0.000  1.00  0.00     0.136 A 
HETATM    8  C   UNL     1      -5.857  -3.750   0.000  1.00  0.00     0.064 A 
HETATM    9  C   UNL     1      -2.250  -2.250   0.000  1.00  0.00     0.154 A 
HETATM   10  C   UNL     1      -0.750  -2.250   0.000  1.00  0.00     0.039 C 
ENDROOT
BRANCH   7  11
HETATM   11  S   UNL     1      -8.455  -3.750   0.000  1.00  0.00     0.266 S 
HETATM   12  O   UNL     1      -9.205  -2.451   0.000  1.00  0.00    -0.203 OA
HETATM   13  O   UNL     1      -7.705  -5.049   0.000  1.00  0.00    -0.203 OA
BRANCH  11  14
HETATM   14  N   UNL     1      -9.754  -4.500   0.000  1.00  0.00    -0.139 NA
HETATM   15  C   UNL     1     -11.053  -3.750   0.000  1.00  0.00     0.201 C 
HETATM   16  O   UNL     1     -11.053  -2.250   0.000  1.00  0.00    -0.173 OA
HETATM   17  C   UNL     1     -12.352  -4.500   0.000  1.00  0.00     0.084 C 
ENDBRANCH  11  14
ENDBRANCH   7  11
TORSDOF 2
