REMARK  1 active torsions:
REMARK  status: ('A' for Active; 'I' for Inactive)
REMARK    1  A    between atoms: C_5  and  C_8 
ROOT
HETATM    1  C   UNL     1      -7.132  -1.964   0.000  1.00  0.00     0.024 A 
HETATM    2  C   UNL     1      -8.431  -2.713   0.000  1.00  0.00    -0.052 A 
HETATM    3  C   UNL     1      -5.833  -2.713   0.000  1.00  0.00     0.029 A 
HETATM    4  C   UNL     1      -9.730  -1.964   0.000  1.00  0.00     0.021 A 
HETATM    5  C   UNL     1     -11.029  -2.713   0.000  1.00  0.00     0.005 A 
HETATM    6  C   UNL     1      -5.833  -4.213   0.000  1.00  0.00     0.007 A 
HETATM    7  C   UNL     1      -8.431  -4.213   0.000  1.00  0.00    -0.052 A 
HETATM    8  C   UNL     1     -11.029  -4.213   0.000  1.00  0.00     0.005 A 
HETATM    9  C   UNL     1      -7.132  -4.963   0.000  1.00  0.00     0.021 A 
HETATM   10  C   UNL     1      -9.730  -4.963   0.000  1.00  0.00     0.021 A 
ENDROOT
BRANCH   3  11
HETATM   11  C   UNL     1      -4.534  -1.964   0.000  1.00  0.00     0.096 A 
HETATM   12  O   UNL     1      -3.419  -0.960   0.000  1.00  0.00    -0.334 OA
HETATM   13  C   UNL     1      -2.120  -1.710   0.000  1.00  0.00     0.269 A 
HETATM   14  O   UNL     1      -0.750  -1.100   0.000  1.00  0.00    -0.190 OA
HETATM   15  C   UNL     1      -2.432  -3.177   0.000  1.00  0.00     0.067 A 
HETATM   16  C   UNL     1      -3.924  -3.334   0.000  1.00  0.00     0.033 A 
HETATM   17  C   UNL     1      -5.416  -0.750   0.000  1.00  0.00     0.030 C 
ENDBRANCH   3  11
TORSDOF 1
