REMARK  2 active torsions:
REMARK  status: ('A' for Active; 'I' for Inactive)
REMARK       I    between atoms: N_1  and  C_17 
REMARK    1  A    between atoms: C_17  and  O_19 
REMARK    2  A    between atoms: O_19  and  C_20 
ROOT
HETATM    1  N   UNL     1      -1.574  -3.275   0.000  1.00  0.00    -0.299 N 
HETATM    2  N   UNL     1      -4.172  -4.774   0.000  1.00  0.00    -0.325 N 
HETATM    3  C   UNL     1      -1.574  -4.774   0.000  1.00  0.00     0.175 A 
HETATM    4  C   UNL     1      -2.873  -5.524   0.000  1.00  0.00     0.159 A 
HETATM    5  C   UNL     1      -2.873  -2.525   0.000  1.00  0.00     0.130 A 
HETATM    6  C   UNL     1      -4.172  -3.275   0.000  1.00  0.00     0.128 A 
HETATM    7  C   UNL     1      -5.471  -7.024   0.000  1.00  0.00     0.014 A 
HETATM    8  C   UNL     1      -6.770  -7.774   0.000  1.00  0.00    -0.031 A 
HETATM    9  C   UNL     1      -4.172  -7.774   0.000  1.00  0.00     0.077 A 
HETATM   10  C   UNL     1      -8.069  -7.024   0.000  1.00  0.00     0.025 A 
HETATM   11  C   UNL     1      -9.368  -7.775   0.000  1.00  0.00     0.005 A 
HETATM   12  C   UNL     1      -4.172  -9.274   0.000  1.00  0.00     0.056 A 
HETATM   13  C   UNL     1      -6.770  -9.274   0.000  1.00  0.00    -0.048 A 
HETATM   14  C   UNL     1      -9.368  -9.275   0.000  1.00  0.00     0.005 A 
HETATM   15  C   UNL     1      -5.471 -10.024   0.000  1.00  0.00     0.029 A 
HETATM   16  C   UNL     1      -8.069 -10.024   0.000  1.00  0.00     0.022 A 
HETATM   17  C   UNL     1      -0.275  -2.525   0.000  1.00  0.00     0.296 C 
HETATM   18  O   UNL     1      -0.275  -1.024   0.000  1.00  0.00    -0.143 OA
HETATM   19  C   UNL     1      -5.471  -5.524   0.000  1.00  0.00     0.131 A 
HETATM   20  O   UNL     1      -2.873  -7.024   0.000  1.00  0.00    -0.298 OA
ENDROOT
BRANCH  17  21
HETATM   21  O   UNL     1       1.024  -3.275   0.000  1.00  0.00    -0.296 OA
BRANCH  21  22
HETATM   22  C   UNL     1       1.024  -4.774   0.000  1.00  0.00     0.153 C 
HETATM   23  C   UNL     1       2.324  -5.524   0.000  1.00  0.00     0.035 C 
ENDBRANCH  21  22
ENDBRANCH  17  21
TORSDOF 2
