REMARK  6 active torsions:
REMARK  status: ('A' for Active; 'I' for Inactive)
REMARK    1  A    between atoms: C_3  and  C_36 
REMARK    2  A    between atoms: O_9  and  C_28 
REMARK    3  A    between atoms: O_9  and  C_35 
REMARK    4  A    between atoms: C_13  and  O_40 
REMARK    5  A    between atoms: C_14  and  O_45 
REMARK    6  A    between atoms: C_17  and  C_18 
ROOT
HETATM    1  O   UNL     1     -10.840  11.350   0.000  1.00  0.00    -0.304 OA
HETATM    2  O   UNL     1      -9.414  13.314   0.000  1.00  0.00    -0.304 OA
HETATM    3  O   UNL     1      -1.688   9.464   0.000  1.00  0.00    -0.190 OA
HETATM    4  O   UNL     1      -2.901   7.083   0.000  1.00  0.00    -0.329 OA
HETATM    5  C   UNL     1      -4.938  10.416   0.000  1.00  0.00    -0.034 A 
HETATM    6  C   UNL     1      -6.430  10.573   0.000  1.00  0.00    -0.022 A 
HETATM    7  C   UNL     1      -4.328   9.046   0.000  1.00  0.00     0.104 A 
HETATM    8  C   UNL     1      -2.901   8.583   0.000  1.00  0.00     0.267 A 
HETATM    9  C   UNL     1      -7.040  11.944   0.000  1.00  0.00     0.078 A 
HETATM   10  C   UNL     1      -8.532  12.100   0.000  1.00  0.00     0.097 A 
HETATM   11  C   UNL     1      -5.210   7.833   0.000  1.00  0.00     0.098 A 
HETATM   12  C   UNL     1      -7.312   9.360   0.000  1.00  0.00    -0.002 A 
HETATM   13  C   UNL     1      -9.414  10.887   0.000  1.00  0.00     0.097 A 
HETATM   14  C   UNL     1      -4.328   6.619   0.000  1.00  0.00     0.145 A 
HETATM   15  C   UNL     1      -6.702   7.989   0.000  1.00  0.00     0.064 A 
HETATM   16  C   UNL     1      -8.803   9.517   0.000  1.00  0.00     0.080 A 
HETATM   17  C   UNL     1     -10.840  12.850   0.000  1.00  0.00     0.303 A 
ENDROOT
BRANCH  15  18
HETATM   18  O   UNL     1      -7.583   6.776   0.000  1.00  0.00    -0.333 OA
BRANCH  18  19
HETATM   19  C   UNL     1      -6.745   5.532   0.000  1.00  0.00     0.181 A 
HETATM   20  O   UNL     1      -5.248   5.637   0.000  1.00  0.00     0.000 OA
HETATM   21  C   UNL     1      -4.409   4.394   0.000  1.00  0.00    -0.052 A 
HETATM   22  C   UNL     1      -3.571   3.150   0.000  1.00  0.00     0.025 A 
HETATM   23  C   UNL     1      -5.067   3.045   0.000  1.00  0.00     0.024 A 
HETATM   24  O   UNL     1      -4.228   1.802   0.000  1.00  0.00     0.000 OA
HETATM   25  C   UNL     1      -5.724   1.697   0.000  1.00  0.00     0.045 A 
HETATM   26  O   UNL     1      -6.335   3.067   0.000  1.00  0.00     0.000 OA
HETATM   27  C   UNL     1      -6.563   2.941   0.000  1.00  0.00     0.035 A 
HETATM   28  C   UNL     1      -7.402   4.184   0.000  1.00  0.00     0.182 A 
HETATM   29  O   UNL     1      -5.906   4.289   0.000  1.00  0.00     0.000 OA
HETATM   30  O   UNL     1      -8.898   4.080   0.000  1.00  0.00    -0.221 OA
BRANCH  25  31
HETATM   31  C   UNL     1      -7.156   1.250   0.000  1.00  0.00    -0.025 A 
HETATM   32  S   UNL     1      -7.636  -0.171   0.000  1.00  0.00    -0.123 SA
HETATM   33  C   UNL     1      -9.136  -0.153   0.000  1.00  0.00     0.062 A 
HETATM   34  C   UNL     1      -9.583   1.278   0.000  1.00  0.00     0.017 A 
HETATM   35  C   UNL     1      -8.360   2.146   0.000  1.00  0.00     0.029 A 
ENDBRANCH  25  31
ENDBRANCH  18  19
ENDBRANCH  15  18
BRANCH   5  36
HETATM   36  C   UNL     1      -4.057  11.630   0.000  1.00  0.00    -0.036 A 
HETATM   37  C   UNL     1      -2.565  11.473   0.000  1.00  0.00     0.075 A 
HETATM   38  C   UNL     1      -1.683  12.687   0.000  1.00  0.00     0.103 A 
HETATM   39  C   UNL     1      -2.293  14.057   0.000  1.00  0.00     0.168 A 
HETATM   40  C   UNL     1      -3.785  14.214   0.000  1.00  0.00     0.103 A 
HETATM   41  O   UNL     1      -1.411  15.271   0.000  1.00  0.00    -0.187 OA
HETATM   42  C   UNL     1      -4.667  13.000   0.000  1.00  0.00     0.075 A 
BRANCH  38  43
HETATM   43  O   UNL     1      -0.191  12.530   0.000  1.00  0.00    -0.330 OA
HETATM   44  C   UNL     1       0.419  11.160   0.000  1.00  0.00     0.181 C 
ENDBRANCH  38  43
BRANCH  40  45
HETATM   45  O   UNL     1      -4.395  15.584   0.000  1.00  0.00    -0.330 OA
HETATM   46  C   UNL     1      -5.887  15.741   0.000  1.00  0.00     0.181 C 
ENDBRANCH  40  45
ENDBRANCH   5  36
TORSDOF 6
