REMARK  5 active torsions:
REMARK  status: ('A' for Active; 'I' for Inactive)
REMARK    1  A    between atoms: C_5  and  C_6 
REMARK    2  A    between atoms: C_6  and  C_7 
REMARK    3  A    between atoms: C_6  and  N_16 
REMARK    4  A    between atoms: C_12  and  N_15 
REMARK    5  A    between atoms: N_15  and  N_16 
ROOT
HETATM    1  N   UNL     1      -0.093   1.997   0.000  1.00  0.00    -0.162 NA
ENDROOT
BRANCH   1   2
HETATM    2  C   UNL     1       0.758   3.232   0.000  1.00  0.00     0.057 A 
HETATM    3  C   UNL     1       2.257   3.270   0.000  1.00  0.00     0.034 A 
HETATM    4  C   UNL     1       3.716   3.618   0.000  1.00  0.00     0.006 A 
HETATM    5  C   UNL     1       2.685   4.707   0.000  1.00  0.00     0.006 A 
HETATM    6  C   UNL     1       2.331   4.194   0.000  1.00  0.00     0.010 A 
HETATM    7  C   UNL     1       1.450   5.558   0.000  1.00  0.00     0.006 A 
HETATM    8  C   UNL     1       0.259   4.646   0.000  1.00  0.00     0.038 A 
ENDBRANCH   1   2
BRANCH   1   9
HETATM    9  N   UNL     1       0.551   0.642   0.000  1.00  0.00    -0.181 NA
BRANCH   9  10
HETATM   10  C   UNL     1       2.046   0.523   0.000  1.00  0.00     0.088 A 
HETATM   11  C   UNL     1       3.460   0.021   0.000  1.00  0.00     0.021 A 
HETATM   12  C   UNL     1       3.419  -1.479   0.000  1.00  0.00     0.004 A 
HETATM   13  C   UNL     1       2.141  -0.694   0.000  1.00  0.00     0.023 A 
HETATM   14  C   UNL     1       4.561  -0.506   0.000  1.00  0.00     0.004 A 
HETATM   15  C   UNL     1       2.493   0.764   0.000  1.00  0.00     0.024 A 
HETATM   16  C   UNL     1       3.988   0.880   0.000  1.00  0.00     0.023 A 
ENDBRANCH   9  10
ENDBRANCH   1   9
TORSDOF 5
