REMARK  4 active torsions:
REMARK  status: ('A' for Active; 'I' for Inactive)
REMARK    1  A    between atoms: C_8  and  C_11 
REMARK    2  A    between atoms: C_11  and  C_12 
REMARK    3  A    between atoms: C_12  and  O_14 
REMARK    4  A    between atoms: O_14  and  C_15 
ROOT
HETATM    1  S   UNL     1       0.750   2.250   0.000  1.00  0.00    -0.041 SA
HETATM    2  H   UNL     1       0.750   5.250   0.000  1.00  0.00     0.170 HD
HETATM    3  N   UNL     1       2.049   4.500   0.000  1.00  0.00    -0.311 N 
HETATM    4  N   UNL     1       3.348   2.250   0.000  1.00  0.00    -0.348 N 
HETATM    5  O   UNL     1       3.348   6.750   0.000  1.00  0.00    -0.172 OA
HETATM    6  H   UNL     1       3.348   0.750   0.000  1.00  0.00     0.163 HD
HETATM    7  C   UNL     1       3.348   5.250   0.000  1.00  0.00     0.187 A 
HETATM    8  C   UNL     1       4.647   4.500   0.000  1.00  0.00     0.025 A 
HETATM    9  C   UNL     1       4.647   3.000   0.000  1.00  0.00     0.126 A 
HETATM   10  C   UNL     1       2.049   3.000   0.000  1.00  0.00     0.174 A 
ENDROOT
BRANCH   8  11
HETATM   11  C   UNL     1       5.946   5.250   0.000  1.00  0.00     0.092 C 
BRANCH  11  12
HETATM   12  C   UNL     1       7.245   4.500   0.000  1.00  0.00     0.274 C 
HETATM   13  O   UNL     1       8.544   5.250   0.000  1.00  0.00    -0.190 OA
BRANCH  12  14
HETATM   14  O   UNL     1       7.245   3.000   0.000  1.00  0.00    -0.329 OA
BRANCH  14  15
HETATM   15  C   UNL     1       8.544   2.250   0.000  1.00  0.00     0.145 C 
HETATM   16  C   UNL     1       8.544   0.750   0.000  1.00  0.00     0.035 C 
ENDBRANCH  14  15
ENDBRANCH  12  14
ENDBRANCH  11  12
ENDBRANCH   8  11
TORSDOF 4
