REMARK  1 active torsions:
REMARK  status: ('A' for Active; 'I' for Inactive)
REMARK    1  A    between atoms: C_21  and  O_23 
ROOT
HETATM    1  N   UNL     1       4.821   5.149   0.000  1.00  0.00    -0.347 N 
HETATM    2  O   UNL     1       7.731  11.117   0.000  1.00  0.00    -0.304 OA
HETATM    3  O   UNL     1       9.833   9.903   0.000  1.00  0.00    -0.304 OA
HETATM    4  C   UNL     1       9.223  11.274   0.000  1.00  0.00     0.303 A 
HETATM    5  C   UNL     1       7.419   9.649   0.000  1.00  0.00     0.097 A 
HETATM    6  C   UNL     1       8.718   8.899   0.000  1.00  0.00     0.097 A 
HETATM    7  C   UNL     1       6.120   8.899   0.000  1.00  0.00     0.080 A 
HETATM    8  C   UNL     1       8.718   7.399   0.000  1.00  0.00     0.075 A 
HETATM    9  C   UNL     1       6.120   7.399   0.000  1.00  0.00    -0.011 A 
HETATM   10  C   UNL     1       7.419   6.649   0.000  1.00  0.00    -0.038 A 
HETATM   11  C   UNL     1       4.821   6.649   0.000  1.00  0.00     0.033 A 
HETATM   12  C   UNL     1       3.522   7.399   0.000  1.00  0.00     0.065 A 
HETATM   13  C   UNL     1       2.223   6.649   0.000  1.00  0.00    -0.038 A 
HETATM   14  C   UNL     1       0.924   7.399   0.000  1.00  0.00     0.029 A 
HETATM   15  C   UNL     1      -0.375   6.649   0.000  1.00  0.00     0.061 A 
HETATM   16  C   UNL     1       7.419   5.149   0.000  1.00  0.00     0.046 A 
HETATM   17  C   UNL     1       2.223   5.149   0.000  1.00  0.00     0.017 A 
HETATM   18  C   UNL     1      -0.375   5.149   0.000  1.00  0.00     0.131 A 
HETATM   19  C   UNL     1       6.120   4.399   0.000  1.00  0.00     0.106 A 
HETATM   20  C   UNL     1       3.522   4.399   0.000  1.00  0.00     0.130 A 
HETATM   21  C   UNL     1       0.924   4.399   0.000  1.00  0.00     0.112 A 
HETATM   22  O   UNL     1      -1.674   4.399   0.000  1.00  0.00    -0.193 OA
ENDROOT
BRANCH  21  23
HETATM   23  O   UNL     1       0.924   2.900   0.000  1.00  0.00    -0.327 OA
HETATM   24  C   UNL     1      -0.375   2.150   0.000  1.00  0.00     0.181 C 
ENDBRANCH  21  23
TORSDOF 1
