REMARK  0 active torsions:
REMARK  status: ('A' for Active; 'I' for Inactive)
ROOT
HETATM    1  N   UNL     1       5.204   2.212   0.000  1.00  0.00    -0.360 N 
HETATM    2  H   UNL     1       5.538   0.750   0.000  1.00  0.00     0.165 HD
HETATM    3  C   UNL     1       5.204   5.583   0.000  1.00  0.00    -0.004 A 
HETATM    4  C   UNL     1       6.377   4.648   0.000  1.00  0.00    -0.011 A 
HETATM    5  C   UNL     1       3.742   5.249   0.000  1.00  0.00    -0.004 A 
HETATM    6  C   UNL     1       3.091   3.898   0.000  1.00  0.00    -0.011 A 
HETATM    7  C   UNL     1       7.676   5.398   0.000  1.00  0.00     0.028 A 
HETATM    8  C   UNL     1       8.975   4.648   0.000  1.00  0.00     0.005 A 
HETATM    9  C   UNL     1       1.595   4.010   0.000  1.00  0.00     0.028 A 
HETATM   10  C   UNL     1       0.750   2.770   0.000  1.00  0.00     0.005 A 
HETATM   11  C   UNL     1       8.975   3.148   0.000  1.00  0.00     0.007 A 
HETATM   12  C   UNL     1       6.377   3.148   0.000  1.00  0.00     0.029 A 
HETATM   13  C   UNL     1       3.742   2.546   0.000  1.00  0.00     0.029 A 
HETATM   14  C   UNL     1       1.401   1.419   0.000  1.00  0.00     0.007 A 
HETATM   15  C   UNL     1       7.676   2.398   0.000  1.00  0.00     0.043 A 
HETATM   16  C   UNL     1       2.897   1.307   0.000  1.00  0.00     0.043 A 
ENDROOT
TORSDOF 0
