REMARK  2 active torsions:
REMARK  status: ('A' for Active; 'I' for Inactive)
REMARK    1  A    between atoms: C_25  and  C_28 
REMARK    2  A    between atoms: C_28  and  C_30 
ROOT
HETATM    1  S   UNK     1      -0.601   0.325   0.000  1.00  0.00    -0.190 SA
HETATM    2  C   UNK     1       2.558   3.658   0.000  1.00  0.00     0.005 A 
HETATM    3  C   UNK     1       3.429   2.436   0.000  1.00  0.00     0.022 A 
HETATM    4  C   UNK     1       1.065   3.514   0.000  1.00  0.00     0.013 A 
HETATM    5  C   UNK     1       0.194   4.736   0.000  1.00  0.00     0.002 A 
HETATM    6  C   UNK     1      -1.299   4.593   0.000  1.00  0.00     0.005 A 
HETATM    7  C   UNK     1       2.806   1.072   0.000  1.00  0.00    -0.040 A 
HETATM    8  C   UNK     1       0.443   2.150   0.000  1.00  0.00     0.050 A 
HETATM    9  C   UNK     1      -1.921   3.228   0.000  1.00  0.00     0.027 A 
HETATM   10  C   UNK     1       1.313   0.928   0.000  1.00  0.00     0.057 A 
HETATM   11  C   UNK     1      -1.051   2.006   0.000  1.00  0.00    -0.035 A 
HETATM   12  C   UNK     1       0.691  -0.436   0.000  1.00  0.00     0.063 A 
HETATM   13  C   UNK     1      -0.202  -1.642   0.000  1.00  0.00     0.062 A 
HETATM   14  C   UNK     1       2.113  -0.913   0.000  1.00  0.00    -0.022 A 
HETATM   15  C   UNK     1       3.419  -0.174   0.000  1.00  0.00    -0.033 A 
HETATM   16  C   UNK     1       4.711  -0.936   0.000  1.00  0.00     0.026 A 
HETATM   17  C   UNK     1      -1.695  -1.785   0.000  1.00  0.00    -0.028 A 
HETATM   18  C   UNK     1      -2.317  -3.150   0.000  1.00  0.00     0.024 A 
HETATM   19  C   UNK     1       4.698  -2.436   0.000  1.00  0.00     0.009 A 
HETATM   20  C   UNK     1       2.100  -2.413   0.000  1.00  0.00    -0.033 A 
HETATM   21  C   UNK     1       0.669  -2.863   0.000  1.00  0.00    -0.037 A 
HETATM   22  C   UNK     1      -1.447  -4.372   0.000  1.00  0.00     0.009 A 
HETATM   23  C   UNK     1       3.392  -3.174   0.000  1.00  0.00     0.026 A 
HETATM   24  C   UNK     1       0.046  -4.228   0.000  1.00  0.00     0.023 A 
HETATM   25  C   UNK     1      -1.907  -0.413   0.000  1.00  0.00     0.014 A 
ENDROOT
BRANCH  25  26
HETATM   26  C   UNK     1      -3.199   0.349   0.000  1.00  0.00     0.137 C 
HETATM   27  N   UNK     1      -3.186   1.849   0.000  1.00  0.00    -0.094 NA
BRANCH  26  28
HETATM   28  C   UNK     1      -4.505  -0.390   0.000  1.00  0.00     0.225 C 
HETATM   29  O   UNK     1      -5.797   0.372   0.000  1.00  0.00    -0.643 OA
HETATM   30  O   UNK     1      -4.519  -1.890   0.000  1.00  0.00    -0.643 OA
ENDBRANCH  26  28
ENDBRANCH  25  26
TORSDOF 2
