REMARK  1 active torsions:
REMARK  status: ('A' for Active; 'I' for Inactive)
REMARK    1  A    between atoms: N_2  and  C_9 
ROOT
HETATM    1  N   UNL     1       4.017   2.534   0.000  1.00  0.00    -0.155 NA
HETATM    2  N   UNL     1       4.481   3.960   0.000  1.00  0.00    -0.253 N 
HETATM    3  C   UNL     1       3.267   4.842   0.000  1.00  0.00     0.165 A 
HETATM    4  C   UNL     1       2.054   3.960   0.000  1.00  0.00     0.089 A 
HETATM    5  C   UNL     1       2.517   2.534   0.000  1.00  0.00     0.177 A 
HETATM    6  C   UNL     1       0.627   4.424   0.000  1.00  0.00     0.022 C 
HETATM    7  N   UNL     1      -0.799   4.887   0.000  1.00  0.00    -0.096 N 
HETATM    8  N   UNL     1       1.636   1.320   0.000  1.00  0.00    -0.077 NA
ENDROOT
BRANCH   2   9
HETATM    9  C   UNL     1       5.907   4.424   0.000  1.00  0.00     0.035 C 
HETATM   10  C   UNL     1       7.022   3.420   0.000  1.00  0.00     0.047 C 
HETATM   11  C   UNL     1       6.219   5.891   0.000  1.00  0.00     0.047 C 
ENDBRANCH   2   9
TORSDOF 1
