REMARK  0 active torsions:
REMARK  status: ('A' for Active; 'I' for Inactive)
REMARK       I    between atoms: N_4  and  C_18 
ROOT
HETATM    1  H   UNL     1       0.243  -5.272   0.000  1.00  0.00     0.191 HD
HETATM    2  N   UNL     1       1.670  -4.809   0.000  1.00  0.00    -0.362 N 
HETATM    3  N   UNL     1       4.097  -4.809   0.000  1.00  0.00    -0.336 N 
HETATM    4  N   UNL     1       3.634  -7.998   0.000  1.00  0.00    -0.274 N 
HETATM    5  H   UNL     1       5.524  -5.272   0.000  1.00  0.00     0.340 HD
HETATM    6  O   UNL     1       5.524  -6.108   0.000  1.00  0.00    -0.329 OA
HETATM    7  C   UNL     1       3.634  -3.382   0.000  1.00  0.00     0.033 A 
HETATM    8  C   UNL     1       2.134  -3.382   0.000  1.00  0.00     0.135 A 
HETATM    9  C   UNL     1       2.884  -5.690   0.000  1.00  0.00     0.201 A 
HETATM   10  C   UNL     1       1.670  -6.572   0.000  1.00  0.00     0.024 A 
HETATM   11  C   UNL     1       4.097  -6.572   0.000  1.00  0.00     0.181 A 
HETATM   12  C   UNL     1       0.203  -6.260   0.000  1.00  0.00    -0.050 A 
HETATM   13  C   UNL     1      -0.801  -7.375   0.000  1.00  0.00     0.019 A 
HETATM   14  C   UNL     1       2.134  -7.998   0.000  1.00  0.00     0.044 A 
HETATM   15  C   UNL     1      -0.337  -8.801   0.000  1.00  0.00     0.010 A 
HETATM   16  C   UNL     1       1.130  -9.113   0.000  1.00  0.00     0.044 A 
HETATM   17  C   UNL     1       4.515  -2.168   0.000  1.00  0.00     0.047 C 
HETATM   18  C   UNL     1       4.515  -9.212   0.000  1.00  0.00     0.176 C 
HETATM   19  O   UNL     1       6.007  -9.055   0.000  1.00  0.00    -0.175 OA
HETATM   20  C   UNL     1       3.905 -10.582   0.000  1.00  0.00     0.082 C 
ENDROOT
TORSDOF 0
