REMARK  3 active torsions:
REMARK  status: ('A' for Active; 'I' for Inactive)
REMARK    1  A    between atoms: N_4  and  N_6 
REMARK    2  A    between atoms: N_4  and  C_20 
REMARK    3  A    between atoms: C_14  and  C_20 
ROOT
HETATM    1 BR   UNL     1     -11.250  -4.890   0.000  1.00  0.00    -0.058 Br
HETATM    2  N   UNL     1      -5.926  -2.177   0.000  1.00  0.00    -0.373 N 
HETATM    3  H   UNL     1      -5.463  -0.750   0.000  1.00  0.00     0.160 HD
HETATM    4  C   UNL     1      -8.652  -1.890   0.000  1.00  0.00     0.048 A 
HETATM    5  C   UNL     1      -9.951  -2.640   0.000  1.00  0.00     0.035 A 
HETATM    6  C   UNL     1      -7.353  -2.640   0.000  1.00  0.00     0.026 A 
HETATM    7  C   UNL     1      -7.353  -4.140   0.000  1.00  0.00    -0.011 A 
HETATM    8  C   UNL     1      -9.951  -4.140   0.000  1.00  0.00    -0.005 A 
HETATM    9  C   UNL     1      -5.926  -4.604   0.000  1.00  0.00     0.001 A 
HETATM   10  C   UNL     1      -5.045  -3.390   0.000  1.00  0.00     0.122 A 
HETATM   11  C   UNL     1      -8.652  -4.890   0.000  1.00  0.00     0.056 A 
ENDROOT
BRANCH   9  12
HETATM   12  C   UNL     1      -5.463  -6.030   0.000  1.00  0.00     0.172 C 
BRANCH  12  13
HETATM   13  N   UNL     1      -3.995  -6.342   0.000  1.00  0.00    -0.184 NA
BRANCH  13  14
HETATM   14  N   UNL     1      -3.532  -7.769   0.000  1.00  0.00    -0.196 N 
HETATM   15  C   UNL     1      -2.105  -8.232   0.000  1.00  0.00     0.165 A 
HETATM   16  S   UNL     1      -0.892  -7.351   0.000  1.00  0.00    -0.051 SA
HETATM   17  S   UNL     1      -2.105  -9.732   0.000  1.00  0.00    -0.075 SA
HETATM   18  C   UNL     1      -3.532 -10.196   0.000  1.00  0.00     0.139 A 
HETATM   19  C   UNL     1      -4.414  -8.982   0.000  1.00  0.00     0.203 A 
HETATM   20  O   UNL     1      -5.914  -8.982   0.000  1.00  0.00    -0.173 OA
ENDBRANCH  13  14
ENDBRANCH  12  13
ENDBRANCH   9  12
TORSDOF 3
