REMARK  2 active torsions:
REMARK  status: ('A' for Active; 'I' for Inactive)
REMARK    1  A    between atoms: C_8  and  N_18 
REMARK    2  A    between atoms: C_12  and  N_18 
ROOT
HETATM    1 CL   UNL     1      -3.481   5.226   0.000  1.00  0.00    -0.091 Cl
HETATM    2  N   UNL     1       1.249   3.075   0.000  1.00  0.00    -0.275 NA
HETATM    3  C   UNL     1      -1.116   4.151   0.000  1.00  0.00     0.079 A 
HETATM    4  C   UNL     1      -2.609   4.006   0.000  1.00  0.00     0.020 A 
HETATM    5  C   UNL     1      -0.244   2.930   0.000  1.00  0.00     0.056 A 
HETATM    6  C   UNL     1      -0.866   1.565   0.000  1.00  0.00     0.005 A 
HETATM    7  C   UNL     1      -3.230   2.641   0.000  1.00  0.00     0.039 A 
HETATM    8  C   UNL     1       0.006   0.344   0.000  1.00  0.00     0.058 A 
HETATM    9  C   UNL     1       2.120   1.854   0.000  1.00  0.00     0.132 A 
HETATM   10  C   UNL     1       1.499   0.489   0.000  1.00  0.00     0.072 A 
HETATM   11  C   UNL     1      -2.358   1.420   0.000  1.00  0.00     0.034 A 
ENDROOT
BRANCH   8  12
HETATM   12  N   UNL     1      -0.615  -1.021   0.000  1.00  0.00    -0.259 NA
BRANCH  12  13
HETATM   13  C   UNL     1       0.257  -2.242   0.000  1.00  0.00     0.037 A 
HETATM   14  C   UNL     1       1.750  -2.097   0.000  1.00  0.00     0.044 A 
HETATM   15  C   UNL     1       2.622  -3.318   0.000  1.00  0.00     0.039 A 
HETATM   16  C   UNL     1       2.001  -4.683   0.000  1.00  0.00     0.153 A 
HETATM   17  C   UNL     1       0.508  -4.828   0.000  1.00  0.00     0.039 A 
HETATM   18  O   UNL     1       2.873  -5.904   0.000  1.00  0.00    -0.223 OA
HETATM   19  C   UNL     1      -0.364  -3.607   0.000  1.00  0.00     0.044 A 
ENDBRANCH  12  13
ENDBRANCH   8  12
TORSDOF 2
