REMARK  3 active torsions:
REMARK  status: ('A' for Active; 'I' for Inactive)
REMARK    1  A    between atoms: N_3  and  N_4 
REMARK    2  A    between atoms: N_4  and  C_16 
REMARK    3  A    between atoms: C_12  and  C_16 
ROOT
HETATM    1  C   UNL     1      -1.632  -2.595   0.000  1.00  0.00     0.022 A 
HETATM    2  C   UNL     1      -0.750  -3.808   0.000  1.00  0.00     0.009 A 
HETATM    3  C   UNL     1      -3.058  -3.058   0.000  1.00  0.00    -0.052 A 
HETATM    4  C   UNL     1      -4.357  -2.308   0.000  1.00  0.00     0.021 A 
HETATM    5  C   UNL     1      -5.656  -3.058   0.000  1.00  0.00     0.007 A 
HETATM    6  C   UNL     1      -1.632  -5.022   0.000  1.00  0.00     0.022 A 
HETATM    7  C   UNL     1      -3.058  -4.558   0.000  1.00  0.00    -0.052 A 
HETATM    8  C   UNL     1      -5.656  -4.558   0.000  1.00  0.00     0.031 A 
HETATM    9  C   UNL     1      -4.357  -5.308   0.000  1.00  0.00     0.023 A 
ENDROOT
BRANCH   8  10
HETATM   10  C   UNL     1      -6.955  -5.308   0.000  1.00  0.00     0.147 C 
BRANCH  10  11
HETATM   11  N   UNL     1      -8.254  -4.558   0.000  1.00  0.00    -0.197 NA
BRANCH  11  12
HETATM   12  N   UNL     1      -9.553  -5.308   0.000  1.00  0.00    -0.238 N 
HETATM   13  C   UNL     1     -10.924  -4.698   0.000  1.00  0.00     0.232 A 
HETATM   14  N   UNL     1     -11.928  -5.813   0.000  1.00  0.00    -0.103 NA
HETATM   15  N   UNL     1     -11.178  -7.112   0.000  1.00  0.00    -0.103 NA
HETATM   16  C   UNL     1      -9.710  -6.800   0.000  1.00  0.00     0.232 A 
ENDBRANCH  11  12
ENDBRANCH  10  11
ENDBRANCH   8  10
TORSDOF 3
