REMARK  5 active torsions:
REMARK  status: ('A' for Active; 'I' for Inactive)
REMARK    1  A    between atoms: O_1  and  C_3 
REMARK    2  A    between atoms: O_1  and  C_24 
REMARK    3  A    between atoms: C_3  and  C_5 
REMARK    4  A    between atoms: C_13  and  C_14 
REMARK    5  A    between atoms: C_19  and  S_22 
ROOT
HETATM    1  C   UNL     1       2.223   8.149   0.000  1.00  0.00     0.033 A 
HETATM    2  C   UNL     1       2.223   6.649   0.000  1.00  0.00     0.009 A 
HETATM    3  C   UNL     1       3.522   8.899   0.000  1.00  0.00     0.050 A 
HETATM    4  C   UNL     1       3.522   5.899   0.000  1.00  0.00     0.055 A 
HETATM    5  C   UNL     1       4.821   8.149   0.000  1.00  0.00     0.057 A 
HETATM    6  C   UNL     1       4.821   6.649   0.000  1.00  0.00     0.017 A 
HETATM    7  N   UNL     1       6.120   8.899   0.000  1.00  0.00    -0.255 NA
HETATM    8  C   UNL     1       6.120   5.899   0.000  1.00  0.00     0.112 A 
HETATM    9  C   UNL     1       7.419   6.649   0.000  1.00  0.00     0.099 A 
HETATM   10  C   UNL     1       7.419   8.149   0.000  1.00  0.00     0.057 A 
HETATM   11  O   UNL     1       6.120   4.399   0.000  1.00  0.00    -0.195 OA
ENDROOT
BRANCH  10  12
HETATM   12  C   UNL     1       8.718   8.899   0.000  1.00  0.00    -0.030 A 
HETATM   13  C   UNL     1       8.718  10.399   0.000  1.00  0.00     0.024 A 
HETATM   14  C   UNL     1      10.017  11.149   0.000  1.00  0.00     0.023 A 
HETATM   15  C   UNL     1      11.316  10.399   0.000  1.00  0.00     0.139 A 
HETATM   16  C   UNL     1      11.316   8.899   0.000  1.00  0.00     0.023 A 
HETATM   17  C   UNL     1      10.017   8.149   0.000  1.00  0.00     0.024 A 
BRANCH  15  18
HETATM   18  S   UNL     1      12.615  11.149   0.000  1.00  0.00     0.312 S 
HETATM   19  O   UNL     1      11.865  12.449   0.000  1.00  0.00    -0.193 OA
HETATM   20  O   UNL     1      13.365   9.851   0.000  1.00  0.00    -0.193 OA
HETATM   21  F   UNL     1      13.914  11.899   0.000  1.00  0.00    -0.104 F 
ENDBRANCH  15  18
ENDBRANCH  10  12
BRANCH   2  22
HETATM   22  C   UNL     1       0.924   5.899   0.000  1.00  0.00     0.221 C 
HETATM   23  O   UNL     1      -0.375   6.649   0.000  1.00  0.00    -0.164 OA
BRANCH  22  24
HETATM   24  O   UNL     1       0.924   4.399   0.000  1.00  0.00    -0.309 OA
BRANCH  24  25
HETATM   25  C   UNL     1      -0.375   3.650   0.000  1.00  0.00     0.151 C 
HETATM   26  C   UNL     1      -1.674   4.399   0.000  1.00  0.00     0.035 C 
ENDBRANCH  24  25
ENDBRANCH  22  24
ENDBRANCH   2  22
TORSDOF 5
