REMARK  1 active torsions:
REMARK  status: ('A' for Active; 'I' for Inactive)
REMARK       I    between atoms: C_1  and  N_9 
REMARK       I    between atoms: C_1  and  N_11 
REMARK    1  A    between atoms: C_3  and  N_9 
REMARK       I    between atoms: N_11  and  C_12 
ROOT
HETATM    1  C   UNL     1      -7.245  -0.750   0.000  1.00  0.00     0.044 A 
HETATM    2  C   UNL     1      -5.946  -1.500   0.000  1.00  0.00     0.040 A 
HETATM    3  C   UNL     1      -8.544  -1.500   0.000  1.00  0.00     0.039 A 
HETATM    4  C   UNL     1      -5.946  -3.000   0.000  1.00  0.00     0.044 A 
HETATM    5  C   UNL     1      -8.544  -3.000   0.000  1.00  0.00     0.153 A 
HETATM    6  C   UNL     1      -7.245  -3.750   0.000  1.00  0.00     0.039 A 
HETATM    7  O   UNL     1      -9.843  -3.750   0.000  1.00  0.00    -0.223 OA
ENDROOT
BRANCH   2   8
HETATM    8  N   UNL     1      -4.647  -0.750   0.000  1.00  0.00    -0.223 NA
HETATM    9  C   UNL     1      -3.348  -1.500   0.000  1.00  0.00     0.239 C 
HETATM   10  N   UNL     1      -2.049  -0.750   0.000  1.00  0.00    -0.060 NA
HETATM   11  N   UNL     1      -3.348  -3.000   0.000  1.00  0.00    -0.187 NA
HETATM   12  C   UNL     1      -2.049  -3.750   0.000  1.00  0.00     0.225 C 
HETATM   13  N   UNL     1      -0.750  -3.000   0.000  1.00  0.00    -0.065 NA
HETATM   14  N   UNL     1      -2.049  -5.250   0.000  1.00  0.00    -0.065 NA
ENDBRANCH   2   8
TORSDOF 1
