REMARK  3 active torsions:
REMARK  status: ('A' for Active; 'I' for Inactive)
REMARK    1  A    between atoms: O_2  and  C_9 
REMARK    2  A    between atoms: O_2  and  S_19 
REMARK    3  A    between atoms: C_10  and  S_19 
ROOT
HETATM    1  S   UNL     1      -7.520   1.024   0.000  1.00  0.00     0.298 S 
HETATM    2  O   UNL     1      -8.270  -0.275   0.000  1.00  0.00    -0.193 OA
HETATM    3  O   UNL     1      -6.770   2.324   0.000  1.00  0.00    -0.193 OA
ENDROOT
BRANCH   1   4
HETATM    4  O   UNL     1      -8.819   1.774   0.000  1.00  0.00    -0.256 OA
BRANCH   4   5
HETATM    5  C   UNL     1      -8.819   3.275   0.000  1.00  0.00     0.136 A 
HETATM    6  C   UNL     1      -7.520   4.024   0.000  1.00  0.00     0.036 A 
HETATM    7  C   UNL     1      -7.520   5.524   0.000  1.00  0.00     0.036 A 
HETATM    8  C   UNL     1      -8.819   6.274   0.000  1.00  0.00     0.013 A 
HETATM    9 CL   UNL     1      -8.819   7.774   0.000  1.00  0.00    -0.092 Cl
HETATM   10  C   UNL     1     -10.118   5.524   0.000  1.00  0.00     0.036 A 
HETATM   11  C   UNL     1     -10.118   4.024   0.000  1.00  0.00     0.036 A 
ENDBRANCH   4   5
ENDBRANCH   1   4
BRANCH   1  12
HETATM   12  C   UNL     1      -6.221   0.275   0.000  1.00  0.00     0.104 A 
HETATM   13  C   UNL     1      -6.221  -1.226   0.000  1.00  0.00     0.042 A 
HETATM   14  C   UNL     1      -4.922  -1.976   0.000  1.00  0.00     0.010 A 
HETATM   15  C   UNL     1      -3.623  -1.226   0.000  1.00  0.00     0.024 A 
HETATM   16  C   UNL     1      -3.623   0.275   0.000  1.00  0.00    -0.026 A 
HETATM   17  C   UNL     1      -4.922   1.024   0.000  1.00  0.00     0.077 A 
HETATM   18  C   UNL     1      -2.324   1.024   0.000  1.00  0.00     0.026 A 
HETATM   19  N   UNL     1      -4.922   2.525   0.000  1.00  0.00    -0.271 NA
HETATM   20  C   UNL     1      -3.623   3.275   0.000  1.00  0.00     0.126 A 
HETATM   21  C   UNL     1      -2.324   2.525   0.000  1.00  0.00     0.031 A 
ENDBRANCH   1  12
TORSDOF 3
