REMARK  3 active torsions:
REMARK  status: ('A' for Active; 'I' for Inactive)
REMARK    1  A    between atoms: N_2  and  N_17 
REMARK    2  A    between atoms: C_4  and  N_17 
REMARK    3  A    between atoms: C_7  and  O_18 
ROOT
HETATM    1  N   UNL     1      -2.973   2.150   0.000  1.00  0.00    -0.153 NA
HETATM    2  N   UNL     1      -2.973   3.650   0.000  1.00  0.00    -0.139 N 
HETATM    3  C   UNL     1      -1.674  -0.101   0.000  1.00  0.00     0.049 A 
HETATM    4  C   UNL     1      -1.674   1.399   0.000  1.00  0.00     0.098 A 
HETATM    5  C   UNL     1      -0.375  -0.851   0.000  1.00  0.00     0.007 A 
HETATM    6  C   UNL     1      -0.375   2.150   0.000  1.00  0.00     0.089 A 
HETATM    7  C   UNL     1       0.924  -0.101   0.000  1.00  0.00     0.007 A 
HETATM    8  C   UNL     1       0.924   1.399   0.000  1.00  0.00     0.052 A 
HETATM    9  O   UNL     1      -0.375   3.650   0.000  1.00  0.00    -0.308 OA
HETATM   10  C   UNL     1      -1.674   4.399   0.000  1.00  0.00     0.299 A 
ENDROOT
BRANCH   2  11
HETATM   11  N   UNL     1      -4.272   4.399   0.000  1.00  0.00    -0.153 NA
BRANCH  11  12
HETATM   12  C   UNL     1      -4.272   5.899   0.000  1.00  0.00     0.098 A 
HETATM   13  C   UNL     1      -2.973   6.649   0.000  1.00  0.00     0.049 A 
HETATM   14  C   UNL     1      -2.973   8.149   0.000  1.00  0.00     0.007 A 
HETATM   15  C   UNL     1      -4.272   8.899   0.000  1.00  0.00     0.007 A 
HETATM   16  C   UNL     1      -5.571   8.149   0.000  1.00  0.00     0.052 A 
HETATM   17  C   UNL     1      -5.571   6.649   0.000  1.00  0.00     0.087 A 
BRANCH  17  18
HETATM   18  O   UNL     1      -6.870   5.899   0.000  1.00  0.00    -0.331 OA
HETATM   19  C   UNL     1      -8.169   6.649   0.000  1.00  0.00     0.181 C 
ENDBRANCH  17  18
ENDBRANCH  11  12
ENDBRANCH   2  11
TORSDOF 3
