REMARK  3 active torsions:
REMARK  status: ('A' for Active; 'I' for Inactive)
REMARK    1  A    between atoms: N_3  and  C_8 
REMARK    2  A    between atoms: C_8  and  C_9 
REMARK    3  A    between atoms: C_9  and  C_10 
ROOT
HETATM    1  H   UNL     1       0.170   1.904   0.000  1.00  0.00     0.163 HD
HETATM    2  N   UNL     1       1.052   3.118   0.000  1.00  0.00    -0.350 N 
HETATM    3  N   UNL     1       3.015   4.544   0.000  1.00  0.00    -0.325 N 
HETATM    4  S   UNL     1       3.433   1.904   0.000  1.00  0.00    -0.041 SA
HETATM    5  C   UNL     1       1.802   5.426   0.000  1.00  0.00     0.127 A 
HETATM    6  C   UNL     1       0.588   4.544   0.000  1.00  0.00     0.124 A 
HETATM    7  C   UNL     1       2.552   3.118   0.000  1.00  0.00     0.172 A 
ENDROOT
BRANCH   3   8
HETATM    8  C   UNL     1       4.442   5.008   0.000  1.00  0.00     0.104 C 
BRANCH   8   9
HETATM    9  C   UNL     1       5.556   4.004   0.000  1.00  0.00     0.024 C 
BRANCH   9  10
HETATM   10  C   UNL     1       6.983   4.468   0.000  1.00  0.00     0.002 C 
HETATM   11  C   UNL     1       8.098   3.464   0.000  1.00  0.00     0.000 C 
ENDBRANCH   9  10
ENDBRANCH   8   9
ENDBRANCH   3   8
TORSDOF 3
