REMARK  4 active torsions:
REMARK  status: ('A' for Active; 'I' for Inactive)
REMARK    1  A    between atoms: C_1  and  C_12 
REMARK    2  A    between atoms: C_5  and  N_9 
REMARK    3  A    between atoms: C_12  and  O_16 
REMARK    4  A    between atoms: C_14  and  O_18 
ROOT
HETATM    1  C   UNL     1      -2.525  -4.922   0.000  1.00  0.00     0.077 A 
HETATM    2  C   UNL     1      -4.024  -7.520   0.000  1.00  0.00     0.077 A 
HETATM    3  C   UNL     1      -4.774  -6.221   0.000  1.00  0.00     0.019 A 
HETATM    4  C   UNL     1      -4.774  -8.819   0.000  1.00  0.00     0.052 A 
HETATM    5  C   UNL     1      -6.274  -6.221   0.000  1.00  0.00     0.102 A 
HETATM    6  C   UNL     1      -6.274  -8.819   0.000  1.00  0.00     0.013 A 
HETATM    7  C   UNL     1      -7.024  -7.520   0.000  1.00  0.00     0.051 A 
HETATM    8  C   UNL     1      -4.024  -4.922   0.000  1.00  0.00     0.064 A 
HETATM    9  C   UNL     1      -1.774  -6.221   0.000  1.00  0.00     0.199 A 
HETATM   10  O   UNL     1      -2.525  -7.520   0.000  1.00  0.00    -0.290 OA
ENDROOT
BRANCH   1  11
HETATM   11  C   UNL     1      -1.774  -3.623   0.000  1.00  0.00     0.229 C 
HETATM   12  O   UNL     1      -2.525  -2.324   0.000  1.00  0.00    -0.164 OA
BRANCH  11  13
HETATM   13  O   UNL     1      -0.275  -3.623   0.000  1.00  0.00    -0.306 OA
HETATM   14  C   UNL     1       0.475  -2.324   0.000  1.00  0.00     0.184 C 
ENDBRANCH  11  13
ENDBRANCH   1  11
BRANCH   9  15
HETATM   15  O   UNL     1      -0.275  -6.221   0.000  1.00  0.00    -0.308 OA
HETATM   16  C   UNL     1       0.475  -7.520   0.000  1.00  0.00     0.184 C 
ENDBRANCH   9  15
BRANCH   5  17
HETATM   17  N   UNL     1      -7.024  -4.922   0.000  1.00  0.00    -0.118 N 
HETATM   18  O   UNL     1      -6.274  -3.623   0.000  1.00  0.00    -0.532 OA
HETATM   19  O   UNL     1      -8.524  -4.922   0.000  1.00  0.00    -0.532 OA
ENDBRANCH   5  17
TORSDOF 4
