REMARK  1 active torsions:
REMARK  status: ('A' for Active; 'I' for Inactive)
REMARK    1  A    between atoms: C_15  and  C_16 
ROOT
HETATM    1  O   UNL     1      -9.713  -6.749   0.000  1.00  0.00     0.000 OA
HETATM    2  C   UNL     1      -4.821  -3.650   0.000  1.00  0.00     0.055 A 
HETATM    3  C   UNL     1      -3.522  -4.399   0.000  1.00  0.00     0.091 A 
HETATM    4  C   UNL     1      -6.120  -4.399   0.000  1.00  0.00     0.040 A 
HETATM    5  C   UNL     1      -3.522  -5.899   0.000  1.00  0.00     0.113 A 
HETATM    6  C   UNL     1      -6.120  -5.899   0.000  1.00  0.00     0.159 A 
HETATM    7  C   UNL     1      -4.821  -6.649   0.000  1.00  0.00     0.083 A 
HETATM    8 AS   UNL     1      -8.264  -7.137   0.000  1.00  0.00     0.000 As
HETATM    9  O   UNL     1      -7.514  -5.838   0.000  1.00  0.00    -0.223 OA
HETATM   10  O   UNL     1      -7.875  -8.586   0.000  1.00  0.00     0.000 OA
HETATM   11  N   UNL     1      -2.223  -6.649   0.000  1.00  0.00    -0.088 N 
HETATM   12  O   UNL     1      -0.924  -5.899   0.000  1.00  0.00    -0.191 OA
HETATM   13  O   UNL     1      -2.223  -8.149   0.000  1.00  0.00    -0.057 OA
HETATM   14  O   UNL     1      -2.223  -3.650   0.000  1.00  0.00    -0.299 OA
HETATM   15  C   UNL     1      -0.924  -4.399   0.000  1.00  0.00     0.356 A 
ENDROOT
BRANCH  15  16
HETATM   16  C   UNL     1       0.375  -3.650   0.000  1.00  0.00     0.248 C 
HETATM   17  O   UNL     1       1.674  -4.399   0.000  1.00  0.00    -0.644 OA
HETATM   18  O   UNL     1       0.375  -2.150   0.000  1.00  0.00    -0.644 OA
ENDBRANCH  15  16
TORSDOF 1
