REMARK  5 active torsions:
REMARK  status: ('A' for Active; 'I' for Inactive)
REMARK    1  A    between atoms: C_7  and  C_21 
REMARK    2  A    between atoms: C_10  and  C_14 
REMARK    3  A    between atoms: C_17  and  C_19 
REMARK    4  A    between atoms: C_19  and  O_20 
REMARK    5  A    between atoms: O_20  and  C_21 
ROOT
HETATM    1  O   UNL     1       4.172   4.774   0.000  1.00  0.00    -0.306 OA
HETATM    2  C   UNL     1       2.873   5.524   0.000  1.00  0.00     0.222 A 
HETATM    3  O   UNL     1       2.873   7.024   0.000  1.00  0.00    -0.170 OA
HETATM    4  C   UNL     1       5.471   5.524   0.000  1.00  0.00     0.186 A 
HETATM    5  C   UNL     1       5.471   7.024   0.000  1.00  0.00     0.213 A 
HETATM    6  O   UNL     1       4.172   7.774   0.000  1.00  0.00    -0.211 OA
ENDROOT
BRANCH   5   7
HETATM    7  C   UNL     1       6.770   7.774   0.000  1.00  0.00     0.186 C 
BRANCH   7   8
HETATM    8  O   UNL     1       6.770   9.274   0.000  1.00  0.00    -0.306 OA
BRANCH   8   9
HETATM    9  C   UNL     1       8.069  10.024   0.000  1.00  0.00     0.222 C 
HETATM   10  O   UNL     1       8.069  11.524   0.000  1.00  0.00    -0.164 OA
BRANCH   9  11
HETATM   11  C   UNL     1       9.368   9.274   0.000  1.00  0.00     0.028 A 
HETATM   12  C   UNL     1       9.368   7.774   0.000  1.00  0.00     0.030 A 
HETATM   13  C   UNL     1      10.667   7.024   0.000  1.00  0.00     0.030 A 
HETATM   14  C   UNL     1      11.966   7.774   0.000  1.00  0.00     0.121 A 
HETATM   15  N   UNL     1      11.966   9.274   0.000  1.00  0.00    -0.291 NA
HETATM   16  C   UNL     1      10.667  10.024   0.000  1.00  0.00     0.146 A 
ENDBRANCH   9  11
ENDBRANCH   8   9
ENDBRANCH   7   8
ENDBRANCH   5   7
BRANCH   2  17
HETATM   17  C   UNL     1       1.574   4.774   0.000  1.00  0.00     0.028 A 
HETATM   18  C   UNL     1       0.275   5.524   0.000  1.00  0.00     0.146 A 
HETATM   19  N   UNL     1      -1.024   4.774   0.000  1.00  0.00    -0.291 NA
HETATM   20  C   UNL     1      -1.024   3.275   0.000  1.00  0.00     0.121 A 
HETATM   21  C   UNL     1       0.275   2.525   0.000  1.00  0.00     0.030 A 
HETATM   22  C   UNL     1       1.574   3.275   0.000  1.00  0.00     0.030 A 
ENDBRANCH   2  17
TORSDOF 5
