REMARK  1 active torsions:
REMARK  status: ('A' for Active; 'I' for Inactive)
REMARK    1  A    between atoms: AS_5  and  C_8 
ROOT
HETATM    1  H   UNL     1       4.272  -5.899   0.000  1.00  0.00     0.160 HD
HETATM    2  C   UNL     1       4.272  -1.399   0.000  1.00  0.00     0.028 A 
HETATM    3  C   UNL     1       4.272  -2.900   0.000  1.00  0.00     0.049 A 
HETATM    4  N   UNL     1       5.571  -5.149   0.000  1.00  0.00    -0.371 N 
HETATM    5  C   UNL     1       5.571  -3.650   0.000  1.00  0.00     0.049 A 
HETATM    6  C   UNL     1       5.571  -0.649   0.000  1.00  0.00    -0.045 A 
HETATM    7  C   UNL     1       6.870  -1.399   0.000  1.00  0.00     0.074 A 
HETATM    8  C   UNL     1       6.870  -2.900   0.000  1.00  0.00     0.089 A 
HETATM    9  O   UNL     1       8.169  -3.650   0.000  1.00  0.00    -0.305 OA
HETATM   10  C   UNL     1       8.169  -5.149   0.000  1.00  0.00     0.296 A 
HETATM   11  C   UNL     1       6.870  -5.899   0.000  1.00  0.00     0.163 A 
HETATM   12  O   UNL     1       9.468  -5.899   0.000  1.00  0.00    -0.188 OA
ENDROOT
BRANCH   6  13
HETATM   13 AS   UNL     1       5.571   0.851   0.000  1.00  0.00     0.000 As
HETATM   14  O   UNL     1       4.071   0.851   0.000  1.00  0.00     0.000 OA
HETATM   15  O   UNL     1       5.571   2.350   0.000  1.00  0.00     0.000 OA
HETATM   16  O   UNL     1       7.071   0.851   0.000  1.00  0.00     0.000 OA
ENDBRANCH   6  13
TORSDOF 1
