REMARK  3 active torsions:
REMARK  status: ('A' for Active; 'I' for Inactive)
REMARK    1  A    between atoms: N_1  and  S_16 
REMARK    2  A    between atoms: C_8  and  S_16 
REMARK    3  A    between atoms: C_10  and  S_19 
ROOT
HETATM    1  S   UNL     1      -0.629  -3.322   0.000  1.00  0.00    -0.082 SA
HETATM    2  N   UNL     1      -0.629  -5.749   0.000  1.00  0.00    -0.254 NA
HETATM    3  C   UNL     1      -3.355  -3.035   0.000  1.00  0.00     0.035 A 
HETATM    4  C   UNL     1      -2.056  -3.785   0.000  1.00  0.00     0.019 A 
HETATM    5  C   UNL     1      -4.654  -3.785   0.000  1.00  0.00     0.024 A 
HETATM    6  C   UNL     1      -2.056  -5.285   0.000  1.00  0.00     0.059 A 
HETATM    7  C   UNL     1      -4.654  -5.285   0.000  1.00  0.00     0.134 A 
HETATM    8  C   UNL     1      -3.355  -6.035   0.000  1.00  0.00     0.064 A 
HETATM    9  C   UNL     1       0.252  -4.535   0.000  1.00  0.00     0.202 A 
ENDROOT
BRANCH   7  10
HETATM   10  S   UNL     1      -5.953  -6.035   0.000  1.00  0.00     0.243 S 
HETATM   11  O   UNL     1      -6.703  -4.736   0.000  1.00  0.00    -0.205 OA
HETATM   12  O   UNL     1      -5.203  -7.334   0.000  1.00  0.00    -0.205 OA
BRANCH  10  13
HETATM   13  N   UNL     1      -7.252  -6.785   0.000  1.00  0.00    -0.278 N 
HETATM   14  C   UNL     1      -8.551  -6.035   0.000  1.00  0.00     0.113 A 
HETATM   15  C   UNL     1      -9.850  -6.785   0.000  1.00  0.00     0.025 A 
HETATM   16  C   UNL     1      -9.850  -8.285   0.000  1.00  0.00     0.004 A 
HETATM   17  C   UNL     1      -8.551  -9.035   0.000  1.00  0.00     0.025 A 
HETATM   18  C   UNL     1      -7.252  -8.285   0.000  1.00  0.00     0.113 A 
ENDBRANCH  10  13
ENDBRANCH   7  10
BRANCH   9  19
HETATM   19  S   UNL     1       1.752  -4.535   0.000  1.00  0.00    -0.105 SA
HETATM   20  C   UNL     1       2.502  -5.834   0.000  1.00  0.00     0.072 C 
ENDBRANCH   9  19
TORSDOF 3
