REMARK  1 active torsions:
REMARK  status: ('A' for Active; 'I' for Inactive)
REMARK    1  A    between atoms: C_2  and  AS_12 
ROOT
HETATM    1  C   UNL     1       3.892   0.119   0.000  1.00  0.00    -0.047 A 
HETATM    2  C   UNL     1       5.191   0.869   0.000  1.00  0.00     0.048 A 
HETATM    3  C   UNL     1       7.789   0.869   0.000  1.00  0.00     0.043 A 
HETATM    4  C   UNL     1       9.088   0.119   0.000  1.00  0.00     0.041 A 
HETATM    5  C   UNL     1       6.490   0.119   0.000  1.00  0.00    -0.017 A 
HETATM    6  C   UNL     1       9.088  -1.381   0.000  1.00  0.00     0.010 A 
HETATM    7  C   UNL     1       6.490  -1.381   0.000  1.00  0.00    -0.047 A 
HETATM    8  C   UNL     1       3.892  -1.381   0.000  1.00  0.00     0.026 A 
HETATM    9  C   UNL     1       7.789  -2.131   0.000  1.00  0.00     0.022 A 
HETATM   10  C   UNL     1       5.191  -2.131   0.000  1.00  0.00     0.026 A 
HETATM   11  N   UNL     1       7.789   2.369   0.000  1.00  0.00    -0.105 NA
ENDROOT
BRANCH   1  12
HETATM   12 AS   UNL     1       2.593   0.869   0.000  1.00  0.00     0.000 As
HETATM   13  O   UNL     1       1.294   0.119   0.000  1.00  0.00     0.000 OA
HETATM   14  O   UNL     1       2.204   2.318   0.000  1.00  0.00     0.000 OA
HETATM   15  O   UNL     1       2.981   2.318   0.000  1.00  0.00     0.000 OA
ENDBRANCH   1  12
TORSDOF 1
