REMARK  1 active torsions:
REMARK  status: ('A' for Active; 'I' for Inactive)
REMARK    1  A    between atoms: C_7  and  N_10 
ROOT
HETATM    1 CL   UNL     1      -8.132  -0.922   0.000  1.00  0.00    -0.081 Cl
HETATM    2 CL   UNL     1      -7.124  -4.026   0.000  1.00  0.00    -0.081 Cl
HETATM    3 CL   UNL     1      -5.492   0.996   0.000  1.00  0.00    -0.080 Cl
HETATM    4 CL   UNL     1      -3.860  -4.026   0.000  1.00  0.00    -0.080 Cl
HETATM    5  C   UNL     1      -5.492  -0.504   0.000  1.00  0.00     0.089 A 
HETATM    6  C   UNL     1      -6.706  -1.386   0.000  1.00  0.00     0.081 A 
HETATM    7  C   UNL     1      -4.279  -1.386   0.000  1.00  0.00     0.127 A 
HETATM    8  C   UNL     1      -4.742  -2.812   0.000  1.00  0.00     0.089 A 
HETATM    9  C   UNL     1      -6.242  -2.812   0.000  1.00  0.00     0.081 A 
ENDROOT
BRANCH   7  10
HETATM   10  N   UNL     1      -2.852  -0.922   0.000  1.00  0.00    -0.126 NA
HETATM   11  N   UNL     1      -1.737  -1.926   0.000  1.00  0.00    -0.022 N 
ENDBRANCH   7  10
TORSDOF 1
