REMARK  4 active torsions:
REMARK  status: ('A' for Active; 'I' for Inactive)
REMARK    1  A    between atoms: C_4  and  N_11 
REMARK    2  A    between atoms: C_7  and  AS_8 
REMARK       I    between atoms: N_11  and  C_12 
REMARK    3  A    between atoms: C_12  and  O_14 
REMARK    4  A    between atoms: O_14  and  C_15 
ROOT
HETATM    1  C   UNL     1      -4.172  -3.275   0.000  1.00  0.00     0.042 A 
HETATM    2  C   UNL     1      -5.471  -4.024   0.000  1.00  0.00     0.010 A 
HETATM    3  C   UNL     1      -2.873  -4.024   0.000  1.00  0.00     0.045 A 
HETATM    4  C   UNL     1      -2.873  -5.524   0.000  1.00  0.00     0.063 A 
HETATM    5  C   UNL     1      -5.471  -5.524   0.000  1.00  0.00     0.022 A 
HETATM    6  C   UNL     1      -4.172  -6.274   0.000  1.00  0.00    -0.046 A 
ENDROOT
BRANCH   3   7
HETATM    7  N   UNL     1      -1.574  -3.275   0.000  1.00  0.00    -0.207 NA
HETATM    8  C   UNL     1      -0.275  -4.024   0.000  1.00  0.00     0.318 C 
HETATM    9  O   UNL     1       1.024  -3.275   0.000  1.00  0.00    -0.141 OA
BRANCH   8  10
HETATM   10  O   UNL     1      -0.275  -5.524   0.000  1.00  0.00    -0.294 OA
BRANCH  10  11
HETATM   11  C   UNL     1       1.024  -6.274   0.000  1.00  0.00     0.153 C 
HETATM   12  C   UNL     1       2.324  -5.524   0.000  1.00  0.00     0.035 C 
ENDBRANCH  10  11
ENDBRANCH   8  10
ENDBRANCH   3   7
BRANCH   6  13
HETATM   13 AS   UNL     1      -4.172  -7.774   0.000  1.00  0.00     0.000 As
HETATM   14  O   UNL     1      -2.672  -7.774   0.000  1.00  0.00     0.000 OA
HETATM   15  O   UNL     1      -5.672  -7.774   0.000  1.00  0.00     0.000 OA
HETATM   16  O   UNL     1      -4.172  -9.274   0.000  1.00  0.00     0.000 OA
ENDBRANCH   6  13
TORSDOF 4
