REMARK  3 active torsions:
REMARK  status: ('A' for Active; 'I' for Inactive)
REMARK    1  A    between atoms: N_2  and  C_12 
REMARK    2  A    between atoms: N_2  and  N_3 
REMARK    3  A    between atoms: N_3  and  C_5 
ROOT
HETATM    1  O   UNL     1      -9.283  -1.507   0.000  1.00  0.00     0.000 OA
HETATM    2  C   UNL     1      -4.153  -4.193   0.000  1.00  0.00     0.046 A 
HETATM    3  C   UNL     1      -5.452  -3.443   0.000  1.00  0.00     0.039 A 
HETATM    4  C   UNL     1      -4.153  -5.693   0.000  1.00  0.00     0.059 A 
HETATM    5  C   UNL     1      -5.452  -6.443   0.000  1.00  0.00     0.046 A 
HETATM    6  C   UNL     1      -6.751  -4.193   0.000  1.00  0.00     0.153 A 
HETATM    7  C   UNL     1      -6.751  -5.693   0.000  1.00  0.00     0.039 A 
HETATM    8 AS   UNL     1      -8.894  -2.956   0.000  1.00  0.00     0.000 As
HETATM    9  O   UNL     1      -7.394  -2.956   0.000  1.00  0.00    -0.223 OA
HETATM   10  O   UNL     1      -9.955  -4.016   0.000  1.00  0.00     0.000 OA
ENDROOT
BRANCH   4  11
HETATM   11  N   UNL     1      -2.854  -6.443   0.000  1.00  0.00    -0.158 NA
BRANCH  11  12
HETATM   12  N   UNL     1      -2.854  -7.943   0.000  1.00  0.00    -0.158 NA
BRANCH  12  13
HETATM   13  C   UNL     1      -1.555  -8.693   0.000  1.00  0.00     0.059 A 
HETATM   14  C   UNL     1      -0.256  -7.943   0.000  1.00  0.00     0.046 A 
HETATM   15  C   UNL     1       1.043  -8.693   0.000  1.00  0.00     0.039 A 
HETATM   16  C   UNL     1       1.043 -10.193   0.000  1.00  0.00     0.153 A 
HETATM   17  C   UNL     1      -0.256 -10.943   0.000  1.00  0.00     0.039 A 
HETATM   18  O   UNL     1       2.342 -10.943   0.000  1.00  0.00    -0.223 OA
HETATM   19  C   UNL     1      -1.555 -10.193   0.000  1.00  0.00     0.046 A 
ENDBRANCH  12  13
ENDBRANCH  11  12
ENDBRANCH   4  11
TORSDOF 3
