REMARK  3 active torsions:
REMARK  status: ('A' for Active; 'I' for Inactive)
REMARK    1  A    between atoms: C_4  and  C_18 
REMARK    2  A    between atoms: C_5  and  C_20 
REMARK    3  A    between atoms: C_10  and  N_17 
REMARK       I    between atoms: N_17  and  C_18 
ROOT
HETATM    1  N   UNL     1       5.665   5.810   0.000  1.00  0.00    -0.229 NA
HETATM    2  C   UNL     1       5.665   7.310   0.000  1.00  0.00     0.204 C 
HETATM    3  O   UNL     1       4.366   8.060   0.000  1.00  0.00    -0.170 OA
ENDROOT
BRANCH   1   4
HETATM    4  C   UNL     1       3.911   4.797   0.000  1.00  0.00     0.039 A 
HETATM    5  C   UNL     1       2.612   5.547   0.000  1.00  0.00     0.041 A 
HETATM    6  C   UNL     1       1.313   4.797   0.000  1.00  0.00     0.006 A 
HETATM    7  C   UNL     1       1.313   3.297   0.000  1.00  0.00     0.001 A 
HETATM    8  O   UNL     1       0.309   3.584   0.000  1.00  0.00     0.000 OA
HETATM    9  C   UNL     1       2.612   2.547   0.000  1.00  0.00     0.006 A 
HETATM   10 AS   UNL     1      -0.441   2.285   0.000  1.00  0.00     0.000 As
HETATM   11  C   UNL     1       3.911   3.297   0.000  1.00  0.00     0.041 A 
HETATM   12  O   UNL     1      -1.890   2.673   0.000  1.00  0.00     0.000 OA
HETATM   13  O   UNL     1      -0.052   0.836   0.000  1.00  0.00     0.000 OA
ENDBRANCH   1   4
BRANCH   2  14
HETATM   14  C   UNL     1       6.964   8.060   0.000  1.00  0.00     0.000 A 
HETATM   15  C   UNL     1       6.964   9.560   0.000  1.00  0.00     0.030 A 
HETATM   16  C   UNL     1       8.263  10.310   0.000  1.00  0.00     0.030 A 
HETATM   17  C   UNL     1       9.562   9.560   0.000  1.00  0.00    -0.005 A 
HETATM   18  C   UNL     1       9.562   8.060   0.000  1.00  0.00     0.030 A 
HETATM   19  C   UNL     1       8.263   7.310   0.000  1.00  0.00     0.030 A 
BRANCH  17  20
HETATM   20  C   UNL     1      10.861  10.310   0.000  1.00  0.00     0.192 C 
HETATM   21  O   UNL     1      10.861  11.810   0.000  1.00  0.00    -0.175 OA
HETATM   22  N   UNL     1      12.160   9.560   0.000  1.00  0.00    -0.071 NA
ENDBRANCH  17  20
ENDBRANCH   2  14
TORSDOF 3
