REMARK  2 active torsions:
REMARK  status: ('A' for Active; 'I' for Inactive)
REMARK    1  A    between atoms: C_4  and  N_14 
REMARK    2  A    between atoms: C_7  and  N_11 
REMARK       I    between atoms: C_10  and  N_11 
ROOT
HETATM    1  C   UNL     1      -4.406  -4.910   0.000  1.00  0.00     0.076 A 
HETATM    2  C   UNL     1      -4.406  -6.410   0.000  1.00  0.00     0.082 A 
HETATM    3  C   UNL     1      -5.705  -7.160   0.000  1.00  0.00     0.093 A 
HETATM    4  C   UNL     1      -7.005  -6.410   0.000  1.00  0.00     0.088 A 
HETATM    5  C   UNL     1      -7.005  -4.910   0.000  1.00  0.00     0.053 A 
HETATM    6  C   UNL     1      -5.705  -4.160   0.000  1.00  0.00     0.053 A 
HETATM    7  C   UNL     1      -2.098  -5.660   0.000  1.00  0.00     0.253 A 
HETATM    8  N   UNL     1      -2.980  -6.874   0.000  1.00  0.00    -0.213 NA
HETATM    9  N   UNL     1      -2.980  -4.447   0.000  1.00  0.00    -0.213 NA
ENDROOT
BRANCH   7  10
HETATM   10  N   UNL     1      -0.598  -5.660   0.000  1.00  0.00    -0.182 NA
HETATM   11  C   UNL     1       0.152  -4.361   0.000  1.00  0.00     0.226 C 
HETATM   12  N   UNL     1       1.652  -4.361   0.000  1.00  0.00    -0.065 NA
HETATM   13  N   UNL     1      -0.598  -3.062   0.000  1.00  0.00    -0.065 NA
ENDBRANCH   7  10
BRANCH   4  14
HETATM   14  N   UNL     1      -8.303  -7.160   0.000  1.00  0.00    -0.122 N 
HETATM   15  O   UNL     1      -9.603  -6.410   0.000  1.00  0.00    -0.532 OA
HETATM   16  O   UNL     1      -8.303  -8.660   0.000  1.00  0.00    -0.532 OA
ENDBRANCH   4  14
TORSDOF 2
