REMARK  5 active torsions:
REMARK  status: ('A' for Active; 'I' for Inactive)
REMARK    1  A    between atoms: O_1  and  C_20 
REMARK    2  A    between atoms: O_1  and  C_21 
REMARK    3  A    between atoms: C_11  and  S_16 
REMARK    4  A    between atoms: S_16  and  C_19 
REMARK    5  A    between atoms: C_19  and  C_20 
ROOT
HETATM    1  O   UNL     1       0.375  -7.346   0.000  1.00  0.00    -0.308 OA
HETATM    2  C   UNL     1      -1.125  -4.748   0.000  1.00  0.00    -0.032 A 
HETATM    3  C   UNL     1      -1.875  -3.449   0.000  1.00  0.00     0.025 A 
HETATM    4  C   UNL     1       0.375  -4.748   0.000  1.00  0.00    -0.018 A 
HETATM    5  C   UNL     1      -1.125  -2.150   0.000  1.00  0.00     0.005 A 
HETATM    6  C   UNL     1       1.125  -3.449   0.000  1.00  0.00     0.024 A 
HETATM    7  C   UNL     1       0.375  -2.150   0.000  1.00  0.00     0.005 A 
HETATM    8  C   UNL     1      -4.125  -7.346   0.000  1.00  0.00     0.294 A 
HETATM    9  O   UNL     1      -3.375  -6.047   0.000  1.00  0.00    -0.188 OA
HETATM   10  C   UNL     1      -3.375  -8.645   0.000  1.00  0.00     0.192 A 
HETATM   11  N   UNL     1      -1.875  -8.645   0.000  1.00  0.00    -0.240 NA
HETATM   12  C   UNL     1      -1.125  -7.346   0.000  1.00  0.00     0.216 A 
HETATM   13  O   UNL     1      -1.875  -6.047   0.000  1.00  0.00     0.000 OA
HETATM   14  C   UNL     1       1.125  -6.047   0.000  1.00  0.00     0.173 A 
ENDROOT
BRANCH   8  15
HETATM   15  O   UNL     1      -5.625  -7.346   0.000  1.00  0.00    -0.326 OA
BRANCH  15  16
HETATM   16  C   UNL     1      -6.138  -5.936   0.000  1.00  0.00     0.162 C 
BRANCH  16  17
HETATM   17  C   UNL     1      -7.615  -5.676   0.000  1.00  0.00     0.155 C 
BRANCH  17  18
HETATM   18  S   UNL     1      -8.579  -6.825   0.000  1.00  0.00     0.172 S 
HETATM   19  O   UNL     1      -9.729  -5.861   0.000  1.00  0.00    -0.226 OA
HETATM   20  O   UNL     1      -7.430  -7.789   0.000  1.00  0.00    -0.226 OA
BRANCH  18  21
HETATM   21  C   UNL     1      -9.544  -7.974   0.000  1.00  0.00     0.108 A 
HETATM   22  C   UNL     1      -9.030  -9.383   0.000  1.00  0.00     0.016 A 
HETATM   23  C   UNL     1      -9.995 -10.532   0.000  1.00  0.00     0.001 A 
HETATM   24  C   UNL     1     -11.472 -10.272   0.000  1.00  0.00     0.000 A 
HETATM   25  C   UNL     1     -11.985  -8.862   0.000  1.00  0.00     0.001 A 
HETATM   26  C   UNL     1     -12.436 -11.421   0.000  1.00  0.00     0.000 C 
HETATM   27  C   UNL     1     -11.021  -7.713   0.000  1.00  0.00     0.016 A 
ENDBRANCH  18  21
ENDBRANCH  17  18
ENDBRANCH  16  17
ENDBRANCH  15  16
ENDBRANCH   8  15
TORSDOF 5
