REMARK  0 active torsions:
REMARK  status: ('A' for Active; 'I' for Inactive)
ROOT
HETATM    1  H   UNL     1      -1.024  -3.275   0.000  1.00  0.00     0.168 HD
HETATM    2  N   UNL     1       0.275  -4.024   0.000  1.00  0.00    -0.336 N 
HETATM    3  O   UNL     1       1.574  -1.774   0.000  1.00  0.00    -0.172 OA
HETATM    4  C   UNL     1       1.573  -3.275   0.000  1.00  0.00     0.187 A 
HETATM    5  C   UNL     1       2.873  -4.024   0.000  1.00  0.00     0.015 A 
HETATM    6  C   UNL     1       4.172  -3.275   0.000  1.00  0.00     0.030 A 
HETATM    7  C   UNL     1       5.471  -4.024   0.000  1.00  0.00     0.005 A 
HETATM    8  C   UNL     1       5.471  -5.524   0.000  1.00  0.00     0.005 A 
HETATM    9  C   UNL     1       2.873  -5.524   0.000  1.00  0.00    -0.025 A 
HETATM   10  C   UNL     1       4.172  -6.274   0.000  1.00  0.00     0.026 A 
HETATM   11  C   UNL     1       1.574  -6.274   0.000  1.00  0.00    -0.010 A 
HETATM   12  C   UNL     1       0.275  -5.524   0.000  1.00  0.00     0.037 A 
HETATM   13  C   UNL     1      -1.024  -6.274   0.000  1.00  0.00     0.089 A 
HETATM   14  C   UNL     1       1.574  -7.774   0.000  1.00  0.00     0.054 A 
HETATM   15  C   UNL     1      -1.024  -7.774   0.000  1.00  0.00     0.063 A 
HETATM   16  C   UNL     1       0.275  -8.524   0.000  1.00  0.00    -0.008 A 
HETATM   17  C   UNL     1      -1.024 -10.774   0.000  1.00  0.00     0.039 A 
HETATM   18  C   UNL     1      -1.024 -12.274   0.000  1.00  0.00     0.023 A 
HETATM   19  C   UNL     1       0.275 -10.024   0.000  1.00  0.00    -0.021 A 
HETATM   20  C   UNL     1       0.275 -13.024   0.000  1.00  0.00     0.080 A 
HETATM   21  C   UNL     1      -2.324 -13.024   0.000  1.00  0.00     0.020 A 
HETATM   22  C   UNL     1      -3.623 -12.274   0.000  1.00  0.00     0.079 A 
HETATM   23  C   UNL     1      -4.922 -13.024   0.000  1.00  0.00     0.052 A 
HETATM   24  C   UNL     1      -4.922 -14.524   0.000  1.00  0.00     0.012 A 
HETATM   25  C   UNL     1      -2.324 -14.524   0.000  1.00  0.00     0.029 A 
HETATM   26  C   UNL     1       1.574 -10.774   0.000  1.00  0.00     0.033 A 
HETATM   27  C   UNL     1      -3.623 -15.274   0.000  1.00  0.00     0.031 A 
HETATM   28  C   UNL     1       1.574 -12.274   0.000  1.00  0.00     0.056 A 
HETATM   29  N   UNL     1      -2.324  -8.524   0.000  1.00  0.00    -0.226 NA
HETATM   30  C   UNL     1      -2.324 -10.024   0.000  1.00  0.00     0.181 A 
HETATM   31  O   UNL     1      -3.623 -10.774   0.000  1.00  0.00    -0.294 OA
HETATM   32  C   UNL     1      -1.024 -15.274   0.000  1.00  0.00     0.228 A 
HETATM   33  O   UNL     1      -1.024 -16.774   0.000  1.00  0.00    -0.163 OA
HETATM   34  O   UNL     1       0.275 -14.524   0.000  1.00  0.00    -0.288 OA
ENDROOT
TORSDOF 0
