REMARK  2 active torsions:
REMARK  status: ('A' for Active; 'I' for Inactive)
REMARK    1  A    between atoms: C_5  and  S_7 
REMARK    2  A    between atoms: C_6  and  N_9 
ROOT
HETATM    1  H   UNL     1      -1.520  -2.128   0.000  1.00  0.00     0.176 HD
HETATM    2  N   UNL     1      -0.610  -0.936   0.000  1.00  0.00    -0.302 N 
HETATM    3  N   UNL     1       0.196   1.354   0.000  1.00  0.00    -0.195 NA
HETATM    4  S   UNL     1       0.890  -0.972   0.000  1.00  0.00     0.030 SA
HETATM    5  C   UNL     1      -1.039   0.502   0.000  1.00  0.00     0.176 A 
HETATM    6  C   UNL     1       1.388   0.443   0.000  1.00  0.00     0.234 A 
ENDROOT
BRANCH   5   7
HETATM    7  S   UNL     1      -2.454   0.999   0.000  1.00  0.00    -0.076 SA
HETATM    8  C   UNL     1      -3.592   0.023   0.000  1.00  0.00     0.077 C 
ENDBRANCH   5   7
BRANCH   6   9
HETATM    9  N   UNL     1       2.825   0.872   0.000  1.00  0.00    -0.099 NA
HETATM   10  N   UNL     1       3.915  -0.158   0.000  1.00  0.00    -0.020 N 
ENDBRANCH   6   9
TORSDOF 2
