REMARK  1 active torsions:
REMARK  status: ('A' for Active; 'I' for Inactive)
REMARK    1  A    between atoms: N_2  and  C_9 
ROOT
HETATM    1  N   UNL     1      -4.949   2.846   0.000  1.00  0.00    -0.254 NA
HETATM    2  N   UNL     1      -2.575   4.217   0.000  1.00  0.00    -0.247 N 
HETATM    3  N   UNL     1      -1.149   3.753   0.000  1.00  0.00    -0.112 NA
HETATM    4  C   UNL     1      -3.457   3.003   0.000  1.00  0.00     0.147 A 
HETATM    5  C   UNL     1      -2.575   1.790   0.000  1.00  0.00     0.010 A 
HETATM    6  C   UNL     1      -1.149   2.253   0.000  1.00  0.00     0.140 A 
HETATM    7  C   UNL     1      -3.185   0.419   0.000  1.00  0.00     0.029 A 
HETATM    8  C   UNL     1      -4.677   0.263   0.000  1.00  0.00     0.031 A 
HETATM    9  C   UNL     1      -5.559   1.476   0.000  1.00  0.00     0.128 A 
ENDROOT
BRANCH   2  10
HETATM   10  C   UNL     1      -3.039   5.643   0.000  1.00  0.00     0.034 A 
HETATM   11  C   UNL     1      -2.035   6.758   0.000  1.00  0.00     0.041 A 
HETATM   12  C   UNL     1      -2.498   8.185   0.000  1.00  0.00     0.006 A 
HETATM   13  C   UNL     1      -3.966   8.496   0.000  1.00  0.00     0.001 A 
HETATM   14  C   UNL     1      -4.970   7.382   0.000  1.00  0.00     0.006 A 
HETATM   15  C   UNL     1      -4.506   5.955   0.000  1.00  0.00     0.041 A 
ENDBRANCH   2  10
TORSDOF 1
