REMARK  1 active torsions:
REMARK  status: ('A' for Active; 'I' for Inactive)
REMARK    1  A    between atoms: C_7  and  C_11 
ROOT
HETATM    1  C   UNL     1      -6.160  -1.233   0.000  1.00  0.00     0.100 A 
HETATM    2  C   UNL     1      -4.693  -1.545   0.000  1.00  0.00     0.121 A 
HETATM    3  C   UNL     1      -3.689  -0.430   0.000  1.00  0.00     0.027 C 
HETATM    4  N   UNL     1      -2.685   0.684   0.000  1.00  0.00    -0.096 N 
HETATM    5  C   UNL     1      -4.229  -2.972   0.000  1.00  0.00     0.244 A 
HETATM    6  O   UNL     1      -2.762  -3.284   0.000  1.00  0.00    -0.162 OA
HETATM    7  O   UNL     1      -5.233  -4.087   0.000  1.00  0.00    -0.269 OA
HETATM    8  C   UNL     1      -6.700  -3.775   0.000  1.00  0.00     0.161 A 
HETATM    9  C   UNL     1      -7.704  -4.889   0.000  1.00  0.00     0.080 C 
HETATM   10  N   UNL     1      -7.163  -2.348   0.000  1.00  0.00    -0.225 NA
ENDROOT
BRANCH   1  11
HETATM   11  C   UNL     1      -6.623   0.193   0.000  1.00  0.00     0.065 A 
HETATM   12  C   UNL     1      -8.050   0.657   0.000  1.00  0.00     0.002 A 
HETATM   13  C   UNL     1      -9.349  -0.093   0.000  1.00  0.00     0.028 A 
HETATM   14  C   UNL     1      -8.050   2.157   0.000  1.00  0.00     0.076 A 
HETATM   15  C   UNL     1     -10.648   0.657   0.000  1.00  0.00     0.005 A 
HETATM   16  C   UNL     1     -10.648   2.157   0.000  1.00  0.00     0.007 A 
HETATM   17  C   UNL     1      -9.349   2.907   0.000  1.00  0.00     0.051 A 
HETATM   18  O   UNL     1      -6.623   2.620   0.000  1.00  0.00    -0.288 OA
HETATM   19  C   UNL     1      -5.742   1.407   0.000  1.00  0.00     0.234 A 
HETATM   20  O   UNL     1      -4.242   1.407   0.000  1.00  0.00    -0.163 OA
ENDBRANCH   1  11
TORSDOF 1
