REMARK  4 active torsions:
REMARK  status: ('A' for Active; 'I' for Inactive)
REMARK    1  A    between atoms: C_1  and  C_10 
REMARK    2  A    between atoms: C_4  and  C_8 
REMARK    3  A    between atoms: C_5  and  C_8 
REMARK    4  A    between atoms: C_10  and  N_13 
ROOT
HETATM    1  C   UNL     1       0.246  -4.489   0.000  1.00  0.00    -0.029 A 
HETATM    2  C   UNL     1       0.246  -5.989   0.000  1.00  0.00     0.017 A 
HETATM    3  C   UNL     1      -1.254  -4.489   0.000  1.00  0.00     0.024 A 
HETATM    4  C   UNL     1      -1.254  -5.989   0.000  1.00  0.00     0.018 A 
HETATM    5  C   UNL     1       0.246  -7.489   0.000  1.00  0.00     0.004 C 
HETATM    6  C   UNL     1       1.746  -5.989   0.000  1.00  0.00     0.004 C 
ENDROOT
BRANCH   1   7
HETATM    7  C   UNL     1       1.307  -3.428   0.000  1.00  0.00     0.081 C 
HETATM    8  C   UNL     1       2.756  -3.816   0.000  1.00  0.00     0.054 C 
BRANCH   7   9
HETATM    9  N   UNL     1       0.919  -1.979   0.000  1.00  0.00    -0.101 NA
HETATM   10  O   UNL     1       1.979  -0.919   0.000  1.00  0.00    -0.061 OA
ENDBRANCH   7   9
ENDBRANCH   1   7
BRANCH   4  11
HETATM   11  C   UNL     1      -2.314  -7.049   0.000  1.00  0.00     0.098 C 
BRANCH  11  12
HETATM   12  C   UNL     1      -3.763  -6.661   0.000  1.00  0.00     0.185 C 
HETATM   13  O   UNL     1      -4.152  -5.212   0.000  1.00  0.00    -0.647 OA
HETATM   14  O   UNL     1      -4.824  -7.722   0.000  1.00  0.00    -0.647 OA
ENDBRANCH  11  12
ENDBRANCH   4  11
TORSDOF 4
