REMARK  0 active torsions:
REMARK  status: ('A' for Active; 'I' for Inactive)
ROOT
HETATM    1  C   UNL     1      -3.348  -2.250   0.000  1.00  0.00     0.118 A 
HETATM    2  C   UNL     1      -4.647  -3.000   0.000  1.00  0.00    -0.004 A 
HETATM    3  C   UNL     1      -2.049  -3.000   0.000  1.00  0.00    -0.018 A 
HETATM    4  C   UNL     1      -5.946  -2.250   0.000  1.00  0.00     0.042 A 
HETATM    5  C   UNL     1      -7.245  -3.000   0.000  1.00  0.00     0.082 A 
HETATM    6  C   UNL     1      -2.049  -4.500   0.000  1.00  0.00     0.028 A 
HETATM    7  C   UNL     1      -4.647  -4.500   0.000  1.00  0.00    -0.046 A 
HETATM    8  C   UNL     1      -7.245  -4.500   0.000  1.00  0.00     0.019 A 
HETATM    9  C   UNL     1      -3.348  -5.250   0.000  1.00  0.00     0.026 A 
HETATM   10  C   UNL     1      -5.946  -5.250   0.000  1.00  0.00     0.023 A 
HETATM   11  C   UNL     1      -8.544  -2.250   0.000  1.00  0.00    -0.006 C 
HETATM   12  N   UNL     1      -9.843  -1.500   0.000  1.00  0.00    -0.101 N 
HETATM   13  O   UNL     1      -3.348  -0.750   0.000  1.00  0.00    -0.191 OA
HETATM   14  C   UNL     1      -0.750  -2.250   0.000  1.00  0.00     0.029 C 
ENDROOT
TORSDOF 0
