REMARK  4 active torsions:
REMARK  status: ('A' for Active; 'I' for Inactive)
REMARK    1  A    between atoms: O_1  and  C_3 
REMARK    2  A    between atoms: O_1  and  C_14 
REMARK    3  A    between atoms: C_5  and  C_11 
REMARK    4  A    between atoms: C_6  and  N_8 
REMARK       I    between atoms: C_14  and  N_16 
ROOT
HETATM    1  C   UNL     1      -5.946  -0.750   0.000  1.00  0.00     0.057 A 
HETATM    2  C   UNL     1      -4.647  -1.500   0.000  1.00  0.00     0.077 A 
HETATM    3  C   UNL     1      -7.245  -1.500   0.000  1.00  0.00     0.046 A 
HETATM    4  C   UNL     1      -4.647  -3.000   0.000  1.00  0.00    -0.006 A 
HETATM    5  C   UNL     1      -7.245  -3.000   0.000  1.00  0.00     0.015 A 
HETATM    6  C   UNL     1      -5.946  -3.750   0.000  1.00  0.00     0.066 A 
ENDROOT
BRANCH   2   7
HETATM    7  O   UNL     1      -3.348  -0.750   0.000  1.00  0.00    -0.274 OA
BRANCH   7   8
HETATM    8  C   UNL     1      -3.348   0.750   0.000  1.00  0.00     0.318 C 
HETATM    9  O   UNL     1      -2.049   1.500   0.000  1.00  0.00    -0.141 OA
HETATM   10  N   UNL     1      -4.647   1.500   0.000  1.00  0.00    -0.223 NA
HETATM   11  C   UNL     1      -4.647   3.000   0.000  1.00  0.00     0.156 C 
ENDBRANCH   7   8
ENDBRANCH   2   7
BRANCH   4  12
HETATM   12  C   UNL     1      -3.348  -3.750   0.000  1.00  0.00    -0.046 C 
HETATM   13  C   UNL     1      -2.049  -3.000   0.000  1.00  0.00     0.026 C 
HETATM   14  C   UNL     1      -3.348  -5.250   0.000  1.00  0.00     0.026 C 
ENDBRANCH   4  12
BRANCH   5  15
HETATM   15  N   UNL     1      -8.544  -3.750   0.000  1.00  0.00    -0.351 N 
HETATM   16  C   UNL     1      -9.843  -3.000   0.000  1.00  0.00     0.125 C 
HETATM   17  C   UNL     1      -8.544  -5.250   0.000  1.00  0.00     0.125 C 
ENDBRANCH   5  15
TORSDOF 4
