REMARK  0 active torsions:
REMARK  status: ('A' for Active; 'I' for Inactive)
ROOT
HETATM    1  O   UNL     1      -9.468   4.600   0.000  1.00  0.00    -0.163 OA
HETATM    2  O   UNL     1      -8.169   2.350   0.000  1.00  0.00    -0.288 OA
HETATM    3  C   UNL     1      -9.468   3.100   0.000  1.00  0.00     0.228 A 
HETATM    4  C   UNL     1     -10.767   2.350   0.000  1.00  0.00     0.023 A 
HETATM    5  C   UNL     1     -12.066   3.100   0.000  1.00  0.00     0.030 A 
HETATM    6  C   UNL     1     -13.365   2.350   0.000  1.00  0.00     0.005 A 
HETATM    7  C   UNL     1     -10.767   0.850   0.000  1.00  0.00    -0.024 A 
HETATM    8  C   UNL     1     -13.365   0.850   0.000  1.00  0.00     0.005 A 
HETATM    9  C   UNL     1      -9.468   0.100   0.000  1.00  0.00    -0.001 A 
HETATM   10  C   UNL     1      -8.169   0.850   0.000  1.00  0.00     0.080 A 
HETATM   11  C   UNL     1      -6.870   0.100   0.000  1.00  0.00     0.078 A 
HETATM   12  C   UNL     1     -12.066   0.100   0.000  1.00  0.00     0.026 A 
HETATM   13  C   UNL     1      -6.870  -1.400   0.000  1.00  0.00    -0.006 A 
HETATM   14  C   UNL     1      -9.468  -1.400   0.000  1.00  0.00     0.073 A 
HETATM   15  C   UNL     1      -8.169  -2.150   0.000  1.00  0.00     0.062 A 
HETATM   16  C   UNL     1      -5.571  -3.650   0.000  1.00  0.00     0.039 A 
HETATM   17  C   UNL     1      -4.272  -4.399   0.000  1.00  0.00     0.023 A 
HETATM   18  C   UNL     1      -5.571  -2.150   0.000  1.00  0.00    -0.021 A 
HETATM   19  C   UNL     1      -4.272  -5.899   0.000  1.00  0.00     0.020 A 
HETATM   20  C   UNL     1      -5.571  -6.650   0.000  1.00  0.00     0.079 A 
HETATM   21  C   UNL     1      -5.571  -8.150   0.000  1.00  0.00     0.052 A 
HETATM   22  C   UNL     1      -4.272  -8.899   0.000  1.00  0.00     0.012 A 
HETATM   23  C   UNL     1      -2.973  -6.649   0.000  1.00  0.00     0.029 A 
HETATM   24  C   UNL     1      -2.973  -3.650   0.000  1.00  0.00     0.080 A 
HETATM   25  C   UNL     1      -4.272  -1.399   0.000  1.00  0.00     0.033 A 
HETATM   26  C   UNL     1      -2.973  -8.149   0.000  1.00  0.00     0.031 A 
HETATM   27  C   UNL     1      -2.973  -2.150   0.000  1.00  0.00     0.056 A 
HETATM   28  N   UNL     1      -8.169  -3.650   0.000  1.00  0.00    -0.227 NA
HETATM   29  C   UNL     1      -6.870  -4.400   0.000  1.00  0.00     0.181 A 
HETATM   30  O   UNL     1      -6.870  -5.900   0.000  1.00  0.00    -0.294 OA
HETATM   31  C   UNL     1      -1.674  -5.899   0.000  1.00  0.00     0.228 A 
HETATM   32  O   UNL     1      -0.375  -6.649   0.000  1.00  0.00    -0.163 OA
HETATM   33  O   UNL     1      -1.674  -4.399   0.000  1.00  0.00    -0.288 OA
ENDROOT
TORSDOF 0
