REMARK  1 active torsions:
REMARK  status: ('A' for Active; 'I' for Inactive)
REMARK    1  A    between atoms: C_10  and  C_11 
ROOT
HETATM    1  C   UNL     1       0.750   4.140   0.000  1.00  0.00     0.007 A 
HETATM    2  C   UNL     1       0.750   2.640   0.000  1.00  0.00     0.007 A 
HETATM    3  C   UNL     1       2.049   4.890   0.000  1.00  0.00     0.047 A 
HETATM    4  C   UNL     1       2.049   1.890   0.000  1.00  0.00     0.045 A 
HETATM    5  C   UNL     1       3.348   4.140   0.000  1.00  0.00     0.072 A 
HETATM    6  C   UNL     1       3.348   2.640   0.000  1.00  0.00     0.048 A 
HETATM    7  N   UNL     1       4.775   4.604   0.000  1.00  0.00    -0.232 NA
HETATM    8  N   UNL     1       4.775   2.177   0.000  1.00  0.00    -0.341 N 
HETATM    9  H   UNL     1       5.238   0.750   0.000  1.00  0.00     0.167 HD
HETATM   10  C   UNL     1       5.656   3.390   0.000  1.00  0.00     0.137 A 
ENDROOT
BRANCH  10  11
HETATM   11  C   UNL     1       7.156   3.390   0.000  1.00  0.00     0.018 A 
HETATM   12  C   UNL     1       7.906   4.689   0.000  1.00  0.00     0.034 A 
HETATM   13 CL   UNL     1       7.156   5.988   0.000  1.00  0.00    -0.087 Cl
HETATM   14  C   UNL     1       9.406   4.689   0.000  1.00  0.00     0.038 A 
HETATM   15  C   UNL     1      10.156   3.390   0.000  1.00  0.00     0.006 A 
HETATM   16  C   UNL     1       9.406   2.091   0.000  1.00  0.00     0.005 A 
HETATM   17  C   UNL     1       7.906   2.091   0.000  1.00  0.00     0.030 A 
ENDBRANCH  10  11
TORSDOF 1
