REMARK  2 active torsions:
REMARK  status: ('A' for Active; 'I' for Inactive)
REMARK    1  A    between atoms: C_9  and  N_16 
REMARK    2  A    between atoms: C_13  and  N_16 
ROOT
HETATM    1  F   UNL     1      -3.607  -7.747   0.000  1.00  0.00    -0.209 F 
HETATM    2  C   UNL     1      -1.009  -7.747   0.000  1.00  0.00     0.097 A 
HETATM    3  C   UNL     1      -2.308  -8.497   0.000  1.00  0.00     0.115 A 
HETATM    4  C   UNL     1       0.290  -8.497   0.000  1.00  0.00     0.046 A 
HETATM    5  C   UNL     1       0.290  -9.997   0.000  1.00  0.00     0.046 A 
HETATM    6  C   UNL     1      -2.308  -9.997   0.000  1.00  0.00    -0.020 A 
HETATM    7  C   UNL     1      -1.009 -10.747   0.000  1.00  0.00     0.030 A 
HETATM    8  C   UNL     1      -3.607 -10.747   0.000  1.00  0.00     0.028 C 
ENDROOT
BRANCH   4   9
HETATM    9  N   UNL     1       1.589  -7.747   0.000  1.00  0.00    -0.228 NA
BRANCH   9  10
HETATM   10  C   UNL     1       1.589  -6.247   0.000  1.00  0.00     0.214 A 
HETATM   11  N   UNL     1       2.803  -5.366   0.000  1.00  0.00    -0.145 NA
HETATM   12  N   UNL     1       2.339  -3.939   0.000  1.00  0.00    -0.259 N 
HETATM   13  C   UNL     1       0.839  -3.939   0.000  1.00  0.00     0.162 A 
HETATM   14  H   UNL     1       3.221  -2.726   0.000  1.00  0.00     0.190 HD
HETATM   15  S   UNL     1       0.376  -5.366   0.000  1.00  0.00    -0.018 SA
HETATM   16  S   UNL     1      -0.043  -2.726   0.000  1.00  0.00    -0.051 SA
ENDBRANCH   9  10
ENDBRANCH   4   9
TORSDOF 2
