REMARK  4 active torsions:
REMARK  status: ('A' for Active; 'I' for Inactive)
REMARK    1  A    between atoms: C_3  and  C_4 
REMARK    2  A    between atoms: C_14  and  C_16 
REMARK    3  A    between atoms: C_15  and  C_17 
REMARK    4  A    between atoms: C_15  and  C_21 
ROOT
HETATM    1  O   UNL     1      -5.683   7.339   0.000  1.00  0.00    -0.313 OA
HETATM    2  C   UNL     1      -4.933   8.638   0.000  1.00  0.00     0.229 A 
HETATM    3  C   UNL     1      -4.783   6.000   0.000  1.00  0.00     0.128 A 
HETATM    4  O   UNL     1      -5.507  10.024   0.000  1.00  0.00    -0.166 OA
HETATM    5  C   UNL     1      -3.484   8.250   0.000  1.00  0.00     0.161 A 
HETATM    6  C   UNL     1      -3.484   6.750   0.000  1.00  0.00     0.087 A 
HETATM    7  O   UNL     1      -3.096   9.699   0.000  1.00  0.00    -0.353 OA
HETATM    8  C   UNL     1      -2.185   6.000   0.000  1.00  0.00     0.120 A 
HETATM    9  C   UNL     1      -2.035   8.638   0.000  1.00  0.00     0.128 A 
HETATM   10  C   UNL     1      -1.285   7.339   0.000  1.00  0.00     0.061 A 
HETATM   11  C   UNL     1      -2.185   7.500   0.000  1.00  0.00     0.084 A 
HETATM   12  O   UNL     1      -0.750   5.563   0.000  1.00  0.00    -0.228 OA
ENDROOT
BRANCH   3  13
HETATM   13  C   UNL     1      -4.783   4.500   0.000  1.00  0.00     0.035 A 
HETATM   14  O   UNL     1      -4.073   3.051   0.000  1.00  0.00     0.000 OA
HETATM   15  C   UNL     1      -2.573   3.051   0.000  1.00  0.00     0.155 A 
HETATM   16  C   UNL     1      -4.984   2.250   0.000  1.00  0.00     0.033 A 
HETATM   17  O   UNL     1      -1.660   1.861   0.000  1.00  0.00    -0.224 OA
HETATM   18  C   UNL     1      -2.185   4.500   0.000  1.00  0.00     0.061 A 
HETATM   19  C   UNL     1      -3.484   2.250   0.000  1.00  0.00     0.132 A 
HETATM   20  C   UNL     1      -3.484   3.750   0.000  1.00  0.00     0.061 A 
HETATM   21  O   UNL     1      -1.984   2.250   0.000  1.00  0.00    -0.226 OA
HETATM   22  C   UNL     1      -3.484   0.750   0.000  1.00  0.00     0.033 C 
ENDBRANCH   3  13
TORSDOF 4
