REMARK  1 active torsions:
REMARK  status: ('A' for Active; 'I' for Inactive)
REMARK    1  A    between atoms: O_18  and  C_19 
ROOT
HETATM    1  N   UNL     1       2.223   3.650   0.000  1.00  0.00    -0.254 NA
HETATM    2  C   UNL     1       2.223   6.649   0.000  1.00  0.00     0.082 A 
HETATM    3  C   UNL     1       3.522   5.899   0.000  1.00  0.00     0.027 A 
HETATM    4  C   UNL     1       4.821   6.649   0.000  1.00  0.00    -0.023 A 
HETATM    5  C   UNL     1       6.120   5.899   0.000  1.00  0.00     0.026 A 
HETATM    6  C   UNL     1       0.924   5.899   0.000  1.00  0.00     0.009 A 
HETATM    7  C   UNL     1      -0.375   6.649   0.000  1.00  0.00     0.029 A 
HETATM    8  C   UNL     1      -1.674   5.899   0.000  1.00  0.00     0.005 A 
HETATM    9  C   UNL     1       6.120   4.399   0.000  1.00  0.00     0.011 A 
HETATM   10  C   UNL     1       3.522   4.399   0.000  1.00  0.00     0.060 A 
HETATM   11  C   UNL     1       0.924   4.399   0.000  1.00  0.00     0.056 A 
HETATM   12  C   UNL     1      -1.674   4.399   0.000  1.00  0.00     0.007 A 
HETATM   13  C   UNL     1       4.821   3.650   0.000  1.00  0.00     0.046 A 
HETATM   14  C   UNL     1      -0.375   3.650   0.000  1.00  0.00     0.045 A 
HETATM   15  N   UNL     1       2.223   8.149   0.000  1.00  0.00    -0.217 NA
HETATM   16  C   UNL     1       3.522   8.899   0.000  1.00  0.00     0.257 A 
HETATM   17  O   UNL     1       3.522  10.399   0.000  1.00  0.00    -0.165 OA
HETATM   18  O   UNL     1       4.821   8.149   0.000  1.00  0.00     0.000 OA
ENDROOT
BRANCH  18  19
HETATM   19  C   UNL     1       6.120   8.899   0.000  1.00  0.00     0.000 C 
HETATM   20  C   UNL     1       7.419   8.149   0.000  1.00  0.00     0.000 C 
ENDBRANCH  18  19
TORSDOF 1
