REMARK  2 active torsions:
REMARK  status: ('A' for Active; 'I' for Inactive)
REMARK    1  A    between atoms: C_4  and  C_22 
REMARK    2  A    between atoms: C_13  and  O_28 
ROOT
HETATM    1 CL   UNL     1      -8.069   5.524   0.000  1.00  0.00    -0.091 Cl
HETATM    2  N   UNL     1      -2.873   5.524   0.000  1.00  0.00    -0.254 NA
HETATM    3  C   UNL     1       1.869  12.762   0.000  1.00  0.00     0.109 A 
HETATM    4  C   UNL     1       0.570  13.512   0.000  1.00  0.00    -0.003 A 
HETATM    5  C   UNL     1       1.869  11.262   0.000  1.00  0.00     0.081 A 
HETATM    6  C   UNL     1       0.570  10.512   0.000  1.00  0.00    -0.003 A 
HETATM    7  C   UNL     1      -0.729  12.762   0.000  1.00  0.00     0.073 A 
HETATM    8  C   UNL     1      -0.729  11.262   0.000  1.00  0.00     0.060 A 
HETATM    9  C   UNL     1      -2.873   8.524   0.000  1.00  0.00     0.079 A 
HETATM   10  C   UNL     1      -4.172   7.774   0.000  1.00  0.00     0.010 A 
HETATM   11  C   UNL     1      -1.573   7.774   0.000  1.00  0.00     0.029 A 
HETATM   12  C   UNL     1      -0.275   8.524   0.000  1.00  0.00     0.007 A 
HETATM   13  C   UNL     1       1.024   7.774   0.000  1.00  0.00     0.130 A 
HETATM   14  C   UNL     1      -5.471   8.524   0.000  1.00  0.00     0.034 A 
HETATM   15  C   UNL     1      -6.770   7.774   0.000  1.00  0.00     0.039 A 
HETATM   16  C   UNL     1       1.024   6.274   0.000  1.00  0.00     0.042 A 
HETATM   17  C   UNL     1      -1.573   6.274   0.000  1.00  0.00     0.060 A 
HETATM   18  C   UNL     1      -4.172   6.274   0.000  1.00  0.00     0.061 A 
HETATM   19  C   UNL     1      -6.770   6.274   0.000  1.00  0.00     0.020 A 
HETATM   20  C   UNL     1      -0.275   5.524   0.000  1.00  0.00     0.049 A 
HETATM   21  C   UNL     1      -5.471   5.524   0.000  1.00  0.00     0.079 A 
HETATM   22  N   UNL     1      -2.873  10.024   0.000  1.00  0.00    -0.250 NA
HETATM   23  O   UNL     1       3.168  13.512   0.000  1.00  0.00    -0.195 OA
HETATM   24  C   UNL     1       0.570   9.012   0.000  1.00  0.00     0.002 A 
ENDROOT
BRANCH   4  25
HETATM   25  C   UNL     1       0.570  15.012   0.000  1.00  0.00    -0.045 C 
HETATM   26  C   UNL     1      -0.729  15.762   0.000  1.00  0.00     0.026 C 
HETATM   27  C   UNL     1       1.869  15.762   0.000  1.00  0.00     0.026 C 
ENDBRANCH   4  25
BRANCH  13  28
HETATM   28  O   UNL     1       2.324   8.524   0.000  1.00  0.00    -0.348 OA
HETATM   29  C   UNL     1       3.623   7.774   0.000  1.00  0.00     0.175 C 
ENDBRANCH  13  28
TORSDOF 2
