REMARK  2 active torsions:
REMARK  status: ('A' for Active; 'I' for Inactive)
REMARK    1  A    between atoms: C_9  and  C_12 
REMARK    2  A    between atoms: C_15  and  C_22 
ROOT
HETATM    1  N   UNL     1       8.513   6.174   0.000  1.00  0.00    -0.255 NA
HETATM    2  C   UNL     1       8.513   4.674   0.000  1.00  0.00     0.055 A 
HETATM    3  C   UNL     1       7.214   3.924   0.000  1.00  0.00     0.075 A 
HETATM    4  C   UNL     1       5.915   4.674   0.000  1.00  0.00     0.024 A 
HETATM    5  C   UNL     1       5.915   6.174   0.000  1.00  0.00    -0.009 A 
HETATM    6  C   UNL     1       7.214   8.424   0.000  1.00  0.00     0.045 A 
HETATM    7  C   UNL     1       5.915   9.174   0.000  1.00  0.00     0.007 A 
HETATM    8  C   UNL     1       7.214   6.924   0.000  1.00  0.00     0.054 A 
HETATM    9  C   UNL     1       4.616   8.424   0.000  1.00  0.00     0.005 A 
HETATM   10  C   UNL     1       4.616   6.924   0.000  1.00  0.00     0.027 A 
ENDROOT
BRANCH   4  11
HETATM   11  C   UNL     1       4.616   3.924   0.000  1.00  0.00     0.200 A 
HETATM   12  O   UNL     1       3.245   4.534   0.000  1.00  0.00    -0.249 OA
HETATM   13  C   UNL     1       2.242   3.419   0.000  1.00  0.00     0.318 A 
HETATM   14  O   UNL     1       0.750   3.576   0.000  1.00  0.00    -0.141 OA
HETATM   15  N   UNL     1       2.992   2.120   0.000  1.00  0.00    -0.231 N 
HETATM   16  N   UNL     1       4.459   2.432   0.000  1.00  0.00    -0.145 NA
HETATM   17  H   UNL     1       2.382   0.750   0.000  1.00  0.00     0.193 HD
ENDBRANCH   4  11
BRANCH   2  18
HETATM   18  C   UNL     1       9.812   3.924   0.000  1.00  0.00    -0.030 A 
HETATM   19  C   UNL     1      11.111   4.674   0.000  1.00  0.00     0.023 A 
HETATM   20  C   UNL     1      12.410   3.924   0.000  1.00  0.00     0.004 A 
HETATM   21  C   UNL     1      12.410   2.424   0.000  1.00  0.00     0.001 A 
HETATM   22  C   UNL     1      11.111   1.674   0.000  1.00  0.00     0.004 A 
HETATM   23  C   UNL     1       9.812   2.424   0.000  1.00  0.00     0.023 A 
ENDBRANCH   2  18
TORSDOF 2
