REMARK  4 active torsions:
REMARK  status: ('A' for Active; 'I' for Inactive)
REMARK    1  A    between atoms: C_4  and  C_15 
REMARK    2  A    between atoms: C_6  and  O_13 
REMARK    3  A    between atoms: C_12  and  C_18 
REMARK    4  A    between atoms: C_15  and  C_18 
ROOT
HETATM    1  C   UNL     1      -3.522  -5.899   0.000  1.00  0.00     0.030 C 
HETATM    2  C   UNL     1      -3.522  -4.399   0.000  1.00  0.00     0.017 C 
HETATM    3  N   UNL     1      -3.522  -2.900   0.000  1.00  0.00    -0.096 N 
ENDROOT
BRANCH   1   4
HETATM    4  C   UNL     1      -4.821  -6.649   0.000  1.00  0.00    -0.039 A 
HETATM    5  C   UNL     1      -6.120  -5.899   0.000  1.00  0.00     0.025 A 
HETATM    6  C   UNL     1      -7.419  -6.649   0.000  1.00  0.00     0.034 A 
HETATM    7  C   UNL     1      -7.419  -8.149   0.000  1.00  0.00     0.116 A 
HETATM    8  C   UNL     1      -6.120  -8.899   0.000  1.00  0.00     0.034 A 
HETATM    9  C   UNL     1      -4.821  -8.149   0.000  1.00  0.00     0.025 A 
BRANCH   7  10
HETATM   10  O   UNL     1      -8.718  -8.899   0.000  1.00  0.00    -0.354 OA
HETATM   11  C   UNL     1     -10.017  -8.149   0.000  1.00  0.00     0.174 C 
ENDBRANCH   7  10
ENDBRANCH   1   4
BRANCH   1  12
HETATM   12  C   UNL     1      -2.223  -6.649   0.000  1.00  0.00     0.076 C 
BRANCH  12  13
HETATM   13  C   UNL     1      -0.924  -5.899   0.000  1.00  0.00     0.037 A 
HETATM   14  N   UNL     1      -0.924  -4.399   0.000  1.00  0.00    -0.279 NA
HETATM   15  C   UNL     1       0.375  -3.650   0.000  1.00  0.00     0.125 A 
HETATM   16  C   UNL     1       1.674  -4.399   0.000  1.00  0.00     0.027 A 
HETATM   17  C   UNL     1       1.674  -5.899   0.000  1.00  0.00     0.008 A 
HETATM   18  C   UNL     1       0.375  -6.649   0.000  1.00  0.00     0.041 A 
ENDBRANCH  12  13
ENDBRANCH   1  12
TORSDOF 4
