REMARK  4 active torsions:
REMARK  status: ('A' for Active; 'I' for Inactive)
REMARK    1  A    between atoms: C_1  and  C_8 
REMARK    2  A    between atoms: C_1  and  N_18 
REMARK    3  A    between atoms: C_9  and  N_18 
REMARK    4  A    between atoms: C_13  and  O_20 
ROOT
HETATM    1  N   UNL     1      -5.250  -2.049   0.000  1.00  0.00    -0.270 NA
HETATM    2  C   UNL     1      -5.250  -4.647   0.000  1.00  0.00     0.073 A 
HETATM    3  C   UNL     1      -4.500  -3.348   0.000  1.00  0.00     0.081 A 
HETATM    4  C   UNL     1      -4.500  -5.946   0.000  1.00  0.00     0.077 A 
HETATM    5  C   UNL     1      -3.000  -3.348   0.000  1.00  0.00    -0.023 A 
HETATM    6  C   UNL     1      -3.000  -5.946   0.000  1.00  0.00     0.126 A 
HETATM    7  C   UNL     1      -2.250  -2.049   0.000  1.00  0.00     0.026 A 
HETATM    8  C   UNL     1      -4.500  -0.750   0.000  1.00  0.00     0.126 A 
HETATM    9  C   UNL     1      -3.000  -0.750   0.000  1.00  0.00     0.031 A 
HETATM   10  C   UNL     1      -2.250  -4.647   0.000  1.00  0.00     0.053 A 
ENDROOT
BRANCH   2  11
HETATM   11  N   UNL     1      -6.750  -4.647   0.000  1.00  0.00    -0.269 NA
BRANCH  11  12
HETATM   12  C   UNL     1      -7.500  -3.348   0.000  1.00  0.00     0.149 C 
BRANCH  12  13
HETATM   13  C   UNL     1      -9.000  -3.348   0.000  1.00  0.00     0.001 A 
HETATM   14  C   UNL     1      -9.750  -2.049   0.000  1.00  0.00     0.102 A 
HETATM   15  C   UNL     1     -11.250  -2.049   0.000  1.00  0.00     0.054 A 
HETATM   16  O   UNL     1      -9.000  -0.750   0.000  1.00  0.00    -0.195 OA
HETATM   17  C   UNL     1     -12.000  -3.348   0.000  1.00  0.00     0.007 A 
HETATM   18  C   UNL     1     -11.250  -4.647   0.000  1.00  0.00     0.005 A 
HETATM   19  C   UNL     1      -9.750  -4.647   0.000  1.00  0.00     0.026 A 
ENDBRANCH  12  13
ENDBRANCH  11  12
ENDBRANCH   2  11
BRANCH   6  20
HETATM   20  O   UNL     1      -2.250  -7.245   0.000  1.00  0.00    -0.353 OA
HETATM   21  C   UNL     1      -0.750  -7.245   0.000  1.00  0.00     0.174 C 
ENDBRANCH   6  20
TORSDOF 4
