REMARK  1 active torsions:
REMARK  status: ('A' for Active; 'I' for Inactive)
REMARK    1  A    between atoms: N_5  and  C_9 
ROOT
HETATM    1  N   UNL     1      -5.471  -5.524   0.000  1.00  0.00    -0.179 N 
HETATM    2  H   UNL     1      -5.471  -4.024   0.000  1.00  0.00     0.185 HD
HETATM    3  O   UNL     1      -5.471 -10.024   0.000  1.00  0.00    -0.173 OA
HETATM    4  N   UNL     1      -4.172  -7.774   0.000  1.00  0.00    -0.040 NA
HETATM    5  C   UNL     1      -4.172  -6.274   0.000  1.00  0.00     0.707 A 
HETATM    6  C   UNL     1      -6.770  -6.274   0.000  1.00  0.00     0.129 A 
HETATM    7  C   UNL     1      -6.770  -7.774   0.000  1.00  0.00     0.134 A 
HETATM    8  C   UNL     1      -5.471  -8.524   0.000  1.00  0.00     0.214 A 
HETATM    9  N   UNL     1      -8.069  -5.524   0.000  1.00  0.00    -0.086 NA
ENDROOT
BRANCH   5  10
HETATM   10  N   UNL     1      -2.873  -5.524   0.000  1.00  0.00    -0.181 N 
HETATM   11  C   UNL     1      -2.873  -4.024   0.000  1.00  0.00     0.143 A 
HETATM   12  C   UNL     1      -1.574  -3.275   0.000  1.00  0.00     0.122 A 
HETATM   13  N   UNL     1      -0.275  -4.024   0.000  1.00  0.00    -0.364 N 
HETATM   14  C   UNL     1      -0.275  -5.524   0.000  1.00  0.00     0.122 A 
HETATM   15  C   UNL     1       1.024  -3.275   0.000  1.00  0.00     0.121 C 
HETATM   16  C   UNL     1      -1.573  -6.274   0.000  1.00  0.00     0.143 A 
ENDBRANCH   5  10
TORSDOF 1
