REMARK  6 active torsions:
REMARK  status: ('A' for Active; 'I' for Inactive)
REMARK    1  A    between atoms: C_12  and  C_13 
REMARK    2  A    between atoms: C_14  and  C_27 
REMARK    3  A    between atoms: C_15  and  C_25 
REMARK    4  A    between atoms: C_16  and  C_17 
REMARK    5  A    between atoms: O_23  and  C_25 
REMARK    6  A    between atoms: C_27  and  O_29 
ROOT
HETATM    1  N   UNL     1       1.527  -8.688   0.000  1.00  0.00    -0.352 N 
HETATM    2  H   UNL     1       2.953  -9.152   0.000  1.00  0.00     0.166 HD
HETATM    3  C   UNL     1       1.063  -7.262   0.000  1.00  0.00     0.078 A 
HETATM    4  C   UNL     1      -0.437  -7.262   0.000  1.00  0.00     0.071 A 
HETATM    5  C   UNL     1      -0.900  -8.688   0.000  1.00  0.00     0.069 A 
HETATM    6  C   UNL     1       0.313  -9.570   0.000  1.00  0.00     0.053 A 
ENDROOT
BRANCH   3   7
HETATM    7  C   UNL     1       1.945  -6.048   0.000  1.00  0.00     0.087 A 
HETATM    8  N   UNL     1       1.335  -4.678   0.000  1.00  0.00    -0.269 NA
HETATM    9  C   UNL     1       2.216  -3.465   0.000  1.00  0.00     0.130 A 
HETATM   10  C   UNL     1       3.708  -3.621   0.000  1.00  0.00     0.048 A 
HETATM   11  C   UNL     1       4.318  -4.992   0.000  1.00  0.00    -0.045 A 
HETATM   12  C   UNL     1       5.810  -5.148   0.000  1.00  0.00     0.022 A 
HETATM   13  C   UNL     1       3.437  -6.205   0.000  1.00  0.00    -0.011 A 
HETATM   14  C   UNL     1       6.420  -6.519   0.000  1.00  0.00     0.005 A 
HETATM   15  C   UNL     1       5.539  -7.732   0.000  1.00  0.00     0.005 A 
HETATM   16  C   UNL     1       4.047  -7.575   0.000  1.00  0.00     0.027 A 
ENDBRANCH   3   7
BRANCH   4  17
HETATM   17  C   UNL     1      -1.318  -6.048   0.000  1.00  0.00     0.230 C 
HETATM   18  O   UNL     1      -2.810  -6.205   0.000  1.00  0.00    -0.163 OA
BRANCH  17  19
HETATM   19  O   UNL     1      -0.708  -4.678   0.000  1.00  0.00    -0.306 OA
HETATM   20  C   UNL     1      -1.590  -3.465   0.000  1.00  0.00     0.184 C 
ENDBRANCH  17  19
ENDBRANCH   4  17
BRANCH   6  21
HETATM   21  C   UNL     1       0.313 -11.070   0.000  1.00  0.00    -0.029 A 
HETATM   22  C   UNL     1       1.612 -11.820   0.000  1.00  0.00     0.024 A 
HETATM   23  C   UNL     1       1.612 -13.320   0.000  1.00  0.00     0.004 A 
HETATM   24  C   UNL     1       0.313 -14.070   0.000  1.00  0.00     0.001 A 
HETATM   25  C   UNL     1      -0.986 -13.320   0.000  1.00  0.00     0.004 A 
HETATM   26  C   UNL     1      -0.986 -11.820   0.000  1.00  0.00     0.024 A 
ENDBRANCH   6  21
BRANCH   5  27
HETATM   27  C   UNL     1      -2.327  -9.152   0.000  1.00  0.00     0.230 C 
HETATM   28  O   UNL     1      -3.442  -8.148   0.000  1.00  0.00    -0.163 OA
BRANCH  27  29
HETATM   29  O   UNL     1      -2.639 -10.619   0.000  1.00  0.00    -0.306 OA
HETATM   30  C   UNL     1      -4.065 -11.083   0.000  1.00  0.00     0.184 C 
ENDBRANCH  27  29
ENDBRANCH   5  27
TORSDOF 6
