REMARK  1 active torsions:
REMARK  status: ('A' for Active; 'I' for Inactive)
REMARK    1  A    between atoms: S_11  and  C_12 
ROOT
HETATM    1  C   UNL     1      -1.674   5.899   0.000  1.00  0.00     0.007 A 
HETATM    2  C   UNL     1      -1.674   4.399   0.000  1.00  0.00     0.007 A 
HETATM    3  C   UNL     1      -0.375   3.650   0.000  1.00  0.00     0.047 A 
HETATM    4  C   UNL     1       0.924   4.399   0.000  1.00  0.00     0.072 A 
HETATM    5  C   UNL     1       0.924   5.899   0.000  1.00  0.00     0.074 A 
HETATM    6  C   UNL     1      -0.375   6.649   0.000  1.00  0.00     0.047 A 
HETATM    7  N   UNL     1       2.223   3.650   0.000  1.00  0.00    -0.247 NA
HETATM    8  C   UNL     1       3.522   4.399   0.000  1.00  0.00     0.126 A 
HETATM    9  C   UNL     1       3.522   5.899   0.000  1.00  0.00     0.189 A 
HETATM   10  N   UNL     1       2.223   6.649   0.000  1.00  0.00    -0.228 NA
HETATM   11  S   UNL     1       6.120   5.899   0.000  1.00  0.00     0.181 S 
HETATM   12  N   UNL     1       4.821   6.649   0.000  1.00  0.00    -0.154 NA
HETATM   13  O   UNL     1       5.370   4.601   0.000  1.00  0.00    -0.263 OA
HETATM   14  O   UNL     1       7.419   5.149   0.000  1.00  0.00    -0.218 OA
HETATM   15  C   UNL     1       4.821   3.650   0.000  1.00  0.00     0.210 A 
ENDROOT
BRANCH  11  16
HETATM   16  C   UNL     1       6.870   7.199   0.000  1.00  0.00     0.115 A 
HETATM   17  C   UNL     1       8.370   7.199   0.000  1.00  0.00     0.019 A 
HETATM   18  C   UNL     1       9.120   8.498   0.000  1.00  0.00     0.040 A 
HETATM   19  C   UNL     1       8.370   9.797   0.000  1.00  0.00     0.302 A 
HETATM   20  C   UNL     1       6.870   9.797   0.000  1.00  0.00     0.040 A 
HETATM   21  N   UNL     1       9.120  11.096   0.000  1.00  0.00     0.616 N 
HETATM   22  C   UNL     1       6.120   8.498   0.000  1.00  0.00     0.019 A 
ENDBRANCH  11  16
TORSDOF 1
