REMARK  4 active torsions:
REMARK  status: ('A' for Active; 'I' for Inactive)
REMARK    1  A    between atoms: C_3  and  C_18 
REMARK    2  A    between atoms: C_9  and  C_15 
REMARK    3  A    between atoms: C_15  and  C_17 
REMARK    4  A    between atoms: C_17  and  C_18 
ROOT
HETATM    1  C   UNL     1      -7.245  -2.250   0.000  1.00  0.00     0.101 C 
HETATM    2  O   UNL     1      -7.245  -0.750   0.000  1.00  0.00    -0.196 OA
ENDROOT
BRANCH   1   3
HETATM    3  C   UNL     1      -8.544  -3.000   0.000  1.00  0.00    -0.023 A 
HETATM    4  C   UNL     1      -9.843  -2.250   0.000  1.00  0.00     0.026 A 
HETATM    5  C   UNL     1     -11.142  -3.000   0.000  1.00  0.00     0.037 A 
HETATM    6  C   UNL     1     -11.142  -4.500   0.000  1.00  0.00     0.153 A 
HETATM    7  C   UNL     1      -9.843  -5.250   0.000  1.00  0.00     0.037 A 
HETATM    8  O   UNL     1     -12.441  -5.250   0.000  1.00  0.00    -0.223 OA
HETATM    9  C   UNL     1      -8.544  -4.500   0.000  1.00  0.00     0.026 A 
ENDBRANCH   1   3
BRANCH   1  10
HETATM   10  C   UNL     1      -5.946  -3.000   0.000  1.00  0.00     0.058 C 
BRANCH  10  11
HETATM   11  C   UNL     1      -4.647  -2.250   0.000  1.00  0.00     0.029 C 
BRANCH  11  12
HETATM   12  C   UNL     1      -3.348  -3.000   0.000  1.00  0.00    -0.037 A 
HETATM   13  C   UNL     1      -2.049  -2.250   0.000  1.00  0.00     0.023 A 
HETATM   14  C   UNL     1      -0.750  -3.000   0.000  1.00  0.00     0.005 A 
HETATM   15  C   UNL     1      -0.750  -4.500   0.000  1.00  0.00     0.006 A 
HETATM   16  C   UNL     1      -2.049  -5.250   0.000  1.00  0.00     0.037 A 
HETATM   17  C   UNL     1      -3.348  -4.500   0.000  1.00  0.00     0.028 A 
HETATM   18 CL   UNL     1      -4.647  -5.250   0.000  1.00  0.00    -0.088 Cl
ENDBRANCH  11  12
ENDBRANCH  10  11
ENDBRANCH   1  10
TORSDOF 4
