REMARK  1 active torsions:
REMARK  status: ('A' for Active; 'I' for Inactive)
REMARK    1  A    between atoms: O_21  and  C_23 
ROOT
HETATM    1  N   UNL     1       0.981  -8.902   0.000  1.00  0.00    -0.306 N 
HETATM    2  N   UNL     1       4.887  -9.602   0.000  1.00  0.00    -0.350 N 
HETATM    3  C   UNL     1       0.962  -7.402   0.000  1.00  0.00     0.250 A 
HETATM    4  C   UNL     1       2.251  -6.636   0.000  1.00  0.00     0.082 A 
HETATM    5  C   UNL     1       3.559  -7.369   0.000  1.00  0.00     0.044 A 
HETATM    6  C   UNL     1       4.849  -6.603   0.000  1.00  0.00     0.010 A 
HETATM    7  C   UNL     1       6.157  -7.336   0.000  1.00  0.00     0.025 A 
HETATM    8  C   UNL     1       6.176  -8.836   0.000  1.00  0.00     0.101 A 
HETATM    9  C   UNL     1       3.579  -8.869   0.000  1.00  0.00     0.048 A 
HETATM   10  C   UNL     1       2.289  -9.636   0.000  1.00  0.00     0.069 A 
HETATM   11  C   UNL     1       2.308 -11.136   0.000  1.00  0.00    -0.006 A 
HETATM   12  C   UNL     1       3.617 -11.869   0.000  1.00  0.00     0.052 A 
HETATM   13  C   UNL     1       4.906 -11.102   0.000  1.00  0.00     0.106 A 
HETATM   14  C   UNL     1       0.865 -11.542   0.000  1.00  0.00    -0.013 A 
HETATM   15  C   UNL     1      -1.402 -10.272   0.000  1.00  0.00     0.044 A 
HETATM   16  C   UNL     1       0.098 -10.253   0.000  1.00  0.00     0.035 A 
HETATM   17  C   UNL     1      -2.135 -11.581   0.000  1.00  0.00     0.007 A 
HETATM   18  C   UNL     1      -1.369 -12.870   0.000  1.00  0.00     0.005 A 
HETATM   19  C   UNL     1       0.131 -12.851   0.000  1.00  0.00     0.027 A 
HETATM   20  O   UNL     1      -0.512  -7.682   0.000  1.00  0.00    -0.197 OA
HETATM   21  C   UNL     1       0.430  -6.000   0.000  1.00  0.00     0.286 A 
HETATM   22  O   UNL     1       1.380  -4.838   0.000  1.00  0.00    -0.330 OA
HETATM   23  C   UNL     1       3.540  -5.869   0.000  1.00  0.00     0.037 A 
HETATM   24  C   UNL     1       2.232  -5.136   0.000  1.00  0.00     0.123 A 
ENDROOT
BRANCH  21  25
HETATM   25  O   UNL     1      -1.050  -5.758   0.000  1.00  0.00    -0.325 OA
HETATM   26  C   UNL     1      -1.581  -4.355   0.000  1.00  0.00     0.177 C 
ENDBRANCH  21  25
TORSDOF 1
