REMARK  2 active torsions:
REMARK  status: ('A' for Active; 'I' for Inactive)
REMARK    1  A    between atoms: N_1  and  C_19 
REMARK    2  A    between atoms: C_15  and  C_22 
ROOT
HETATM    1  C   UNL     1       9.020   0.623   0.000  1.00  0.00    -0.045 A 
HETATM    2  C   UNL     1      10.319  -0.127   0.000  1.00  0.00     0.027 A 
HETATM    3  C   UNL     1       7.721  -0.127   0.000  1.00  0.00    -0.037 A 
HETATM    4  C   UNL     1      10.319  -1.627   0.000  1.00  0.00     0.005 A 
HETATM    5  C   UNL     1       7.721  -1.627   0.000  1.00  0.00     0.023 A 
HETATM    6  C   UNL     1       9.020  -2.377   0.000  1.00  0.00     0.005 A 
HETATM    7  C   UNL     1       8.581   2.435   0.000  1.00  0.00     0.034 A 
HETATM    8  C   UNL     1       9.730   1.470   0.000  1.00  0.00     0.059 A 
HETATM    9  C   UNL     1       7.172   1.922   0.000  1.00  0.00     0.003 A 
HETATM   10  C   UNL     1       6.422   0.623   0.000  1.00  0.00     0.100 A 
HETATM   11  C   UNL     1       5.672  -0.676   0.000  1.00  0.00     0.000 C 
HETATM   12  N   UNL     1       4.922  -1.976   0.000  1.00  0.00    -0.100 N 
ENDROOT
BRANCH  10  13
HETATM   13  C   UNL     1       5.123   1.373   0.000  1.00  0.00     0.019 A 
HETATM   14  C   UNL     1       5.123   2.873   0.000  1.00  0.00     0.002 A 
HETATM   15  C   UNL     1       3.824   3.623   0.000  1.00  0.00     0.000 A 
HETATM   16  C   UNL     1       2.525   2.873   0.000  1.00  0.00     0.000 A 
HETATM   17  C   UNL     1       2.525   1.373   0.000  1.00  0.00     0.000 A 
HETATM   18  C   UNL     1       3.824   0.623   0.000  1.00  0.00     0.002 A 
ENDBRANCH  10  13
BRANCH   7  19
HETATM   19  N   UNL     1       8.842   3.912   0.000  1.00  0.00    -0.351 N 
HETATM   20  C   UNL     1       7.693   4.876   0.000  1.00  0.00     0.101 A 
HETATM   21  C   UNL     1       7.953   6.353   0.000  1.00  0.00     0.024 A 
HETATM   22  C   UNL     1       9.363   6.866   0.000  1.00  0.00     0.004 A 
HETATM   23  C   UNL     1      10.512   5.902   0.000  1.00  0.00     0.024 A 
HETATM   24  C   UNL     1      10.251   4.425   0.000  1.00  0.00     0.101 A 
ENDBRANCH   7  19
TORSDOF 2
