REMARK  1 active torsions:
REMARK  status: ('A' for Active; 'I' for Inactive)
REMARK    1  A    between atoms: C_10  and  C_12 
ROOT
HETATM    1  N   UNL     1      -2.223  -3.650   0.000  1.00  0.00    -0.229 NA
HETATM    2  N   UNL     1      -0.924  -5.899   0.000  1.00  0.00    -0.229 NA
HETATM    3  C   UNL     1      -4.821  -3.650   0.000  1.00  0.00     0.046 A 
HETATM    4  C   UNL     1      -3.522  -4.399   0.000  1.00  0.00     0.058 A 
HETATM    5  C   UNL     1      -6.120  -4.399   0.000  1.00  0.00     0.007 A 
HETATM    6  C   UNL     1      -3.522  -5.899   0.000  1.00  0.00     0.005 A 
HETATM    7  C   UNL     1      -6.120  -5.899   0.000  1.00  0.00     0.005 A 
HETATM    8  C   UNL     1      -4.821  -6.649   0.000  1.00  0.00     0.029 A 
HETATM    9  C   UNL     1      -2.223  -6.649   0.000  1.00  0.00     0.058 A 
HETATM   10  C   UNL     1      -0.924  -4.399   0.000  1.00  0.00     0.202 A 
HETATM   11  C   UNL     1      -2.223  -8.149   0.000  1.00  0.00     0.052 C 
ENDROOT
BRANCH  10  12
HETATM   12  C   UNL     1       0.375  -3.650   0.000  1.00  0.00     0.236 C 
HETATM   13  O   UNL     1       1.674  -4.399   0.000  1.00  0.00    -0.172 OA
HETATM   14  N   UNL     1       0.375  -2.150   0.000  1.00  0.00    -0.068 NA
ENDBRANCH  10  12
TORSDOF 1
