REMARK  3 active torsions:
REMARK  status: ('A' for Active; 'I' for Inactive)
REMARK    1  A    between atoms: N_3  and  C_19 
REMARK    2  A    between atoms: C_9  and  N_18 
REMARK    3  A    between atoms: C_13  and  N_18 
ROOT
HETATM    1 CL   UNL     1     -14.015   4.226   0.000  1.00  0.00    -0.091 Cl
HETATM    2  N   UNL     1      -8.819   4.226   0.000  1.00  0.00    -0.275 NA
HETATM    3  C   UNL     1     -11.417   4.226   0.000  1.00  0.00     0.079 A 
HETATM    4  C   UNL     1     -12.716   3.475   0.000  1.00  0.00     0.020 A 
HETATM    5  C   UNL     1     -10.118   3.475   0.000  1.00  0.00     0.056 A 
HETATM    6  C   UNL     1     -10.118   1.976   0.000  1.00  0.00     0.005 A 
HETATM    7  C   UNL     1     -12.716   1.976   0.000  1.00  0.00     0.039 A 
HETATM    8  C   UNL     1      -8.819   1.226   0.000  1.00  0.00     0.058 A 
HETATM    9  C   UNL     1      -7.520   3.475   0.000  1.00  0.00     0.132 A 
HETATM   10  C   UNL     1      -7.520   1.976   0.000  1.00  0.00     0.072 A 
HETATM   11  C   UNL     1     -11.417   1.226   0.000  1.00  0.00     0.034 A 
ENDROOT
BRANCH   8  12
HETATM   12  N   UNL     1      -8.819  -0.275   0.000  1.00  0.00    -0.259 NA
BRANCH  12  13
HETATM   13  C   UNL     1      -7.520  -1.024   0.000  1.00  0.00     0.040 A 
HETATM   14  C   UNL     1      -6.221  -0.275   0.000  1.00  0.00     0.065 A 
HETATM   15  C   UNL     1      -4.922  -1.024   0.000  1.00  0.00     0.103 A 
HETATM   16  N   UNL     1      -4.922  -2.525   0.000  1.00  0.00    -0.368 N 
HETATM   17  C   UNL     1      -6.221  -3.275   0.000  1.00  0.00     0.103 A 
HETATM   18  C   UNL     1      -7.520  -2.525   0.000  1.00  0.00     0.065 A 
BRANCH  16  19
HETATM   19  C   UNL     1      -3.623  -3.275   0.000  1.00  0.00     0.097 C 
HETATM   20  C   UNL     1      -3.623  -4.774   0.000  1.00  0.00     0.026 C 
ENDBRANCH  16  19
ENDBRANCH  12  13
ENDBRANCH   8  12
TORSDOF 3
