REMARK  4 active torsions:
REMARK  status: ('A' for Active; 'I' for Inactive)
REMARK    1  A    between atoms: C_7  and  N_9 
REMARK    2  A    between atoms: N_9  and  C_11 
REMARK    3  A    between atoms: C_14  and  S_17 
REMARK    4  A    between atoms: S_17  and  N_22 
REMARK       I    between atoms: C_18  and  N_22 
ROOT
HETATM    1  C   UNL     1      -9.149  -1.772   0.000  1.00  0.00     0.037 A 
HETATM    2  C   UNL     1      -8.685  -3.198   0.000  1.00  0.00     0.042 A 
HETATM    3  C   UNL     1      -7.218  -3.510   0.000  1.00  0.00     0.024 A 
HETATM    4  C   UNL     1      -6.214  -2.395   0.000  1.00  0.00     0.130 A 
HETATM    5  C   UNL     1      -6.678  -0.969   0.000  1.00  0.00     0.024 A 
HETATM    6  C   UNL     1      -8.145  -0.657   0.000  1.00  0.00     0.042 A 
ENDROOT
BRANCH   1   7
HETATM    7  N   UNL     1     -10.616  -1.460   0.000  1.00  0.00    -0.251 NA
BRANCH   7   8
HETATM    8  C   UNL     1     -11.079  -0.033   0.000  1.00  0.00     0.121 A 
HETATM    9  C   UNL     1     -12.506   0.430   0.000  1.00  0.00     0.013 A 
HETATM   10  C   UNL     1     -13.805  -0.320   0.000  1.00  0.00     0.029 A 
HETATM   11  C   UNL     1     -12.506   1.931   0.000  1.00  0.00     0.059 A 
HETATM   12  C   UNL     1     -15.104   0.430   0.000  1.00  0.00     0.005 A 
HETATM   13  C   UNL     1     -15.104   1.931   0.000  1.00  0.00     0.007 A 
HETATM   14  C   UNL     1     -13.805   2.680   0.000  1.00  0.00     0.046 A 
HETATM   15  N   UNL     1     -11.079   2.394   0.000  1.00  0.00    -0.223 NA
HETATM   16  C   UNL     1     -10.198   1.181   0.000  1.00  0.00     0.230 A 
HETATM   17  O   UNL     1      -8.698   1.181   0.000  1.00  0.00    -0.168 OA
ENDBRANCH   7   8
ENDBRANCH   1   7
BRANCH   4  18
HETATM   18  S   UNL     1      -4.747  -2.707   0.000  1.00  0.00     0.265 S 
HETATM   19  O   UNL     1      -3.280  -3.019   0.000  1.00  0.00    -0.203 OA
HETATM   20  O   UNL     1      -5.059  -4.174   0.000  1.00  0.00    -0.203 OA
BRANCH  18  21
HETATM   21  N   UNL     1      -4.435  -1.240   0.000  1.00  0.00    -0.133 NA
HETATM   22  C   UNL     1      -3.009  -0.776   0.000  1.00  0.00     0.234 C 
HETATM   23  N   UNL     1      -1.894  -1.780   0.000  1.00  0.00    -0.064 NA
HETATM   24  N   UNL     1      -2.697   0.691   0.000  1.00  0.00    -0.064 NA
ENDBRANCH  18  21
ENDBRANCH   4  18
TORSDOF 4
