REMARK  3 active torsions:
REMARK  status: ('A' for Active; 'I' for Inactive)
REMARK    1  A    between atoms: P_3  and  O_5 
REMARK    2  A    between atoms: O_5  and  C_8 
REMARK    3  A    between atoms: C_9  and  N_15 
ROOT
HETATM    1  C   UNL     1      -3.937  -4.916   0.000  1.00  0.00     0.036 A 
HETATM    2  C   UNL     1      -2.972  -3.767   0.000  1.00  0.00     0.048 A 
HETATM    3  C   UNL     1      -3.424  -6.326   0.000  1.00  0.00     0.125 A 
HETATM    4  C   UNL     1      -1.495  -4.027   0.000  1.00  0.00     0.082 A 
HETATM    5  C   UNL     1      -1.946  -6.586   0.000  1.00  0.00     0.036 A 
HETATM    6  C   UNL     1      -0.982  -5.437   0.000  1.00  0.00     0.048 A 
ENDROOT
BRANCH   3   7
HETATM    7  O   UNL     1      -4.388  -7.475   0.000  1.00  0.00    -0.295 OA
BRANCH   7   8
HETATM    8  P   UNL     1      -5.865  -7.214   0.000  1.00  0.00     0.373 P 
HETATM    9  O   UNL     1      -7.164  -6.464   0.000  1.00  0.00    -0.290 OA
HETATM   10  C   UNL     1      -8.463  -7.214   0.000  1.00  0.00     0.184 A 
HETATM   11  C   UNL     1      -8.463  -8.714   0.000  1.00  0.00     0.176 A 
HETATM   12  O   UNL     1      -7.164  -9.464   0.000  1.00  0.00    -0.340 OA
HETATM   13  C   UNL     1      -5.865  -8.714   0.000  1.00  0.00     0.259 A 
HETATM   14  O   UNL     1      -5.352  -5.805   0.000  1.00  0.00    -0.255 OA
ENDBRANCH   7   8
ENDBRANCH   3   7
BRANCH   4  15
HETATM   15  N   UNL     1      -0.531  -2.878   0.000  1.00  0.00    -0.122 N 
HETATM   16  O   UNL     1      -1.044  -1.469   0.000  1.00  0.00    -0.532 OA
HETATM   17  O   UNL     1       0.946  -3.139   0.000  1.00  0.00    -0.532 OA
ENDBRANCH   4  15
TORSDOF 3
