REMARK  2 active torsions:
REMARK  status: ('A' for Active; 'I' for Inactive)
REMARK    1  A    between atoms: C_3  and  N_11 
REMARK    2  A    between atoms: C_5  and  S_8 
REMARK       I    between atoms: N_11  and  C_12 
REMARK       I    between atoms: C_12  and  N_14 
ROOT
HETATM    1  C   UNL     1      -5.946  -0.750   0.000  1.00  0.00     0.043 A 
HETATM    2  C   UNL     1      -7.245  -1.500   0.000  1.00  0.00     0.024 A 
HETATM    3  C   UNL     1      -4.647  -1.500   0.000  1.00  0.00     0.041 A 
HETATM    4  C   UNL     1      -4.647  -3.000   0.000  1.00  0.00     0.043 A 
HETATM    5  C   UNL     1      -7.245  -3.000   0.000  1.00  0.00     0.132 A 
HETATM    6  C   UNL     1      -5.946  -3.750   0.000  1.00  0.00     0.024 A 
ENDROOT
BRANCH   3   7
HETATM    7  N   UNL     1      -3.348  -0.750   0.000  1.00  0.00    -0.212 NA
HETATM    8  C   UNL     1      -2.049  -1.500   0.000  1.00  0.00     0.295 C 
HETATM    9  O   UNL     1      -0.750  -0.750   0.000  1.00  0.00    -0.147 OA
HETATM   10  N   UNL     1      -2.049  -3.000   0.000  1.00  0.00    -0.228 NA
HETATM   11  C   UNL     1      -0.750  -3.750   0.000  1.00  0.00     0.156 C 
ENDBRANCH   3   7
BRANCH   5  12
HETATM   12  S   UNL     1      -8.544  -3.750   0.000  1.00  0.00     0.281 S 
HETATM   13  N   UNL     1      -9.843  -4.500   0.000  1.00  0.00    -0.047 N 
HETATM   14  O   UNL     1      -9.294  -2.451   0.000  1.00  0.00    -0.201 OA
HETATM   15  O   UNL     1      -7.794  -5.049   0.000  1.00  0.00    -0.201 OA
ENDBRANCH   5  12
TORSDOF 2
