REMARK  1 active torsions:
REMARK  status: ('A' for Active; 'I' for Inactive)
REMARK    1  A    between atoms: C_6  and  C_9 
ROOT
HETATM    1  N   UNL     1       3.522   8.899   0.000  1.00  0.00    -0.255 NA
HETATM    2  C   UNL     1       3.522   4.399   0.000  1.00  0.00     0.139 A 
HETATM    3  C   UNL     1       4.821   8.149   0.000  1.00  0.00     0.055 A 
HETATM    4  C   UNL     1       4.821   6.649   0.000  1.00  0.00     0.074 A 
HETATM    5  C   UNL     1       3.522   5.899   0.000  1.00  0.00     0.013 A 
HETATM    6  C   UNL     1       2.223   6.649   0.000  1.00  0.00     0.024 A 
HETATM    7  C   UNL     1       0.924   8.899   0.000  1.00  0.00     0.046 A 
HETATM    8  C   UNL     1       2.223   8.149   0.000  1.00  0.00     0.059 A 
HETATM    9  C   UNL     1      -0.375   8.149   0.000  1.00  0.00     0.013 A 
HETATM   10  C   UNL     1      -0.375   6.649   0.000  1.00  0.00     0.044 A 
HETATM   11  C   UNL     1       0.924   5.899   0.000  1.00  0.00     0.038 A 
HETATM   12  C   UNL     1       2.223   3.650   0.000  1.00  0.00     0.062 A 
HETATM   13  C   UNL     1       2.223   2.150   0.000  1.00  0.00     0.046 A 
HETATM   14  C   UNL     1       0.924   1.399   0.000  1.00  0.00     0.008 A 
HETATM   15  C   UNL     1      -0.375   2.150   0.000  1.00  0.00     0.025 A 
HETATM   16  C   UNL     1      -0.375   3.650   0.000  1.00  0.00     0.106 A 
HETATM   17  O   UNL     1       4.821   3.650   0.000  1.00  0.00    -0.189 OA
HETATM   18  N   UNL     1       0.924   4.399   0.000  1.00  0.00    -0.333 N 
ENDROOT
BRANCH   3  19
HETATM   19  C   UNL     1       6.120   8.899   0.000  1.00  0.00    -0.030 A 
HETATM   20  C   UNL     1       6.120  10.399   0.000  1.00  0.00     0.029 A 
HETATM   21  C   UNL     1       7.419  11.149   0.000  1.00  0.00     0.038 A 
HETATM   22  C   UNL     1       8.718  10.399   0.000  1.00  0.00     0.014 A 
HETATM   23 CL   UNL     1      10.017  11.149   0.000  1.00  0.00    -0.092 Cl
HETATM   24  C   UNL     1       8.718   8.899   0.000  1.00  0.00     0.038 A 
HETATM   25  C   UNL     1       7.419   8.149   0.000  1.00  0.00     0.029 A 
ENDBRANCH   3  19
TORSDOF 1
