REMARK  2 active torsions:
REMARK  status: ('A' for Active; 'I' for Inactive)
REMARK    1  A    between atoms: C_11  and  C_12 
REMARK    2  A    between atoms: C_16  and  C_18 
ROOT
HETATM    1  C   UNL     1       5.521   5.554   0.000  1.00  0.00    -0.007 A 
HETATM    2  C   UNL     1       4.222   6.304   0.000  1.00  0.00     0.030 A 
HETATM    3  C   UNL     1       2.923   5.554   0.000  1.00  0.00     0.030 A 
HETATM    4  C   UNL     1       5.521   4.054   0.000  1.00  0.00     0.030 A 
HETATM    5  C   UNL     1       2.923   4.054   0.000  1.00  0.00    -0.007 A 
HETATM    6  C   UNL     1       4.222   3.304   0.000  1.00  0.00     0.030 A 
ENDROOT
BRANCH   1   7
HETATM    7  C   UNL     1       6.820   6.304   0.000  1.00  0.00     0.161 A 
HETATM    8  N   UNL     1       8.191   5.694   0.000  1.00  0.00    -0.143 NA
HETATM    9  N   UNL     1       9.194   6.808   0.000  1.00  0.00     0.018 NA
HETATM   10  N   UNL     1       8.444   8.107   0.000  1.00  0.00    -0.005 NA
HETATM   11  N   UNL     1       6.977   7.795   0.000  1.00  0.00    -0.268 N 
HETATM   12  H   UNL     1       5.862   8.799   0.000  1.00  0.00     0.185 HD
ENDBRANCH   1   7
BRANCH   5  13
HETATM   13  C   UNL     1       1.624   3.304   0.000  1.00  0.00     0.161 A 
HETATM   14  N   UNL     1       0.254   3.914   0.000  1.00  0.00    -0.268 N 
HETATM   15  N   UNL     1      -0.750   2.799   0.000  1.00  0.00    -0.005 NA
HETATM   16  H   UNL     1      -0.058   5.381   0.000  1.00  0.00     0.185 HD
HETATM   17  N   UNL     1       0.000   1.500   0.000  1.00  0.00     0.018 NA
HETATM   18  N   UNL     1       1.467   1.812   0.000  1.00  0.00    -0.143 NA
ENDBRANCH   5  13
TORSDOF 2
