REMARK  4 active torsions:
REMARK  status: ('A' for Active; 'I' for Inactive)
REMARK    1  A    between atoms: O_1  and  C_3 
REMARK    2  A    between atoms: O_1  and  C_9 
REMARK    3  A    between atoms: C_4  and  N_18 
REMARK    4  A    between atoms: C_10  and  N_14 
ROOT
HETATM    1  O   UNL     1      -8.169   2.150   0.000  1.00  0.00    -0.358 OA
ENDROOT
BRANCH   1   2
HETATM    2  C   UNL     1      -6.870   1.399   0.000  1.00  0.00     0.122 A 
HETATM    3  C   UNL     1      -5.571   2.150   0.000  1.00  0.00     0.081 A 
HETATM    4  C   UNL     1      -4.272   1.399   0.000  1.00  0.00     0.116 A 
HETATM    5  C   UNL     1      -4.272  -0.101   0.000  1.00  0.00     0.066 A 
HETATM    6  C   UNL     1      -5.571  -0.851   0.000  1.00  0.00     0.045 A 
HETATM    7  N   UNL     1      -2.973  -0.851   0.000  1.00  0.00    -0.104 NA
HETATM    8  C   UNL     1      -6.870  -0.101   0.000  1.00  0.00     0.036 A 
BRANCH   4   9
HETATM    9  N   UNL     1      -2.973   2.150   0.000  1.00  0.00    -0.117 N 
HETATM   10  O   UNL     1      -1.674   1.399   0.000  1.00  0.00    -0.532 OA
HETATM   11  O   UNL     1      -2.973   3.650   0.000  1.00  0.00    -0.532 OA
ENDBRANCH   4   9
ENDBRANCH   1   2
BRANCH   1  12
HETATM   12  C   UNL     1      -8.169   3.650   0.000  1.00  0.00     0.122 A 
HETATM   13  C   UNL     1      -6.870   4.399   0.000  1.00  0.00     0.081 A 
HETATM   14  C   UNL     1      -6.870   5.899   0.000  1.00  0.00     0.116 A 
HETATM   15  C   UNL     1      -8.169   6.649   0.000  1.00  0.00     0.066 A 
HETATM   16  C   UNL     1      -9.468   5.899   0.000  1.00  0.00     0.045 A 
HETATM   17  N   UNL     1      -8.169   8.149   0.000  1.00  0.00    -0.104 NA
HETATM   18  C   UNL     1      -9.468   4.399   0.000  1.00  0.00     0.036 A 
BRANCH  14  19
HETATM   19  N   UNL     1      -5.571   6.649   0.000  1.00  0.00    -0.117 N 
HETATM   20  O   UNL     1      -5.571   8.149   0.000  1.00  0.00    -0.532 OA
HETATM   21  O   UNL     1      -4.272   5.899   0.000  1.00  0.00    -0.532 OA
ENDBRANCH  14  19
ENDBRANCH   1  12
TORSDOF 4
