REMARK  0 active torsions:
REMARK  status: ('A' for Active; 'I' for Inactive)
ROOT
HETATM    1  O   UNL     1      -2.973  -9.649   0.000  1.00  0.00    -0.147 OA
HETATM    2  N   UNL     1      -1.674  -7.399   0.000  1.00  0.00    -0.196 NA
HETATM    3  N   UNL     1      -0.375  -9.649   0.000  1.00  0.00    -0.237 N 
HETATM    4  H   UNL     1      -0.375 -11.149   0.000  1.00  0.00     0.193 HD
HETATM    5  N   UNL     1       0.924  -8.899   0.000  1.00  0.00    -0.161 NA
HETATM    6  S   UNL     1       2.223  -6.649   0.000  1.00  0.00    -0.069 SA
HETATM    7  C   UNL     1      -0.375  -6.649   0.000  1.00  0.00     0.131 A 
HETATM    8  C   UNL     1       0.924  -7.399   0.000  1.00  0.00     0.153 A 
HETATM    9  C   UNL     1       0.924  -4.399   0.000  1.00  0.00     0.002 A 
HETATM   10  C   UNL     1       2.223  -5.149   0.000  1.00  0.00     0.010 A 
HETATM   11  C   UNL     1       0.924  -2.900   0.000  1.00  0.00     0.032 A 
HETATM   12  C   UNL     1       2.223  -2.150   0.000  1.00  0.00     0.006 A 
HETATM   13  C   UNL     1       3.522  -4.399   0.000  1.00  0.00     0.033 A 
HETATM   14  C   UNL     1       3.522  -2.900   0.000  1.00  0.00     0.006 A 
HETATM   15  C   UNL     1      -1.674  -8.899   0.000  1.00  0.00     0.295 A 
HETATM   16  S   UNL     1      -0.375  -5.149   0.000  1.00  0.00    -0.118 SA
HETATM   17  C   UNL     1      -1.674  -4.399   0.000  1.00  0.00     0.069 C 
ENDROOT
TORSDOF 0
