REMARK  5 active torsions:
REMARK  status: ('A' for Active; 'I' for Inactive)
REMARK    1  A    between atoms: N_1  and  N_2 
REMARK    2  A    between atoms: N_1  and  C_8 
REMARK    3  A    between atoms: N_2  and  C_9 
REMARK    4  A    between atoms: C_3  and  S_19 
REMARK    5  A    between atoms: C_14  and  C_24 
ROOT
HETATM    1  C   UNL     1       6.870  -5.899   0.000  1.00  0.00     0.123 A 
HETATM    2  C   UNL     1       8.169  -6.649   0.000  1.00  0.00    -0.008 A 
HETATM    3  C   UNL     1       6.870  -4.399   0.000  1.00  0.00     0.152 A 
HETATM    4  C   UNL     1       8.169  -8.149   0.000  1.00  0.00     0.027 A 
HETATM    5  C   UNL     1       9.468  -8.899   0.000  1.00  0.00     0.005 A 
HETATM    6  C   UNL     1       8.169  -3.650   0.000  1.00  0.00     0.073 A 
HETATM    7  C   UNL     1       9.468  -5.899   0.000  1.00  0.00    -0.042 A 
HETATM    8  C   UNL     1      10.767  -8.149   0.000  1.00  0.00     0.005 A 
HETATM    9  C   UNL     1       9.468  -4.399   0.000  1.00  0.00     0.056 A 
HETATM   10  C   UNL     1      10.767  -6.649   0.000  1.00  0.00     0.022 A 
HETATM   11  O   UNL     1       5.571  -3.650   0.000  1.00  0.00    -0.189 OA
ENDROOT
BRANCH   1  12
HETATM   12  N   UNL     1       5.571  -6.649   0.000  1.00  0.00    -0.147 NA
BRANCH  12  13
HETATM   13  N   UNL     1       4.272  -5.899   0.000  1.00  0.00    -0.157 NA
BRANCH  13  14
HETATM   14  C   UNL     1       2.129  -7.137   0.000  1.00  0.00     0.058 A 
HETATM   15  C   UNL     1       0.830  -6.387   0.000  1.00  0.00     0.044 A 
HETATM   16  C   UNL     1      -0.469  -7.137   0.000  1.00  0.00     0.024 A 
HETATM   17  C   UNL     1      -0.469  -8.637   0.000  1.00  0.00     0.132 A 
HETATM   18  C   UNL     1       0.830  -9.387   0.000  1.00  0.00     0.024 A 
HETATM   19  C   UNL     1       2.129  -8.637   0.000  1.00  0.00     0.044 A 
BRANCH  17  20
HETATM   20  S   UNL     1      -1.768  -9.387   0.000  1.00  0.00     0.281 S 
HETATM   21  O   UNL     1      -1.018 -10.686   0.000  1.00  0.00    -0.201 OA
HETATM   22  O   UNL     1      -3.067 -10.137   0.000  1.00  0.00    -0.201 OA
HETATM   23  N   UNL     1      -2.518  -8.088   0.000  1.00  0.00    -0.047 N 
ENDBRANCH  17  20
ENDBRANCH  13  14
ENDBRANCH  12  13
ENDBRANCH   1  12
BRANCH   6  24
HETATM   24  C   UNL     1       8.169  -2.150   0.000  1.00  0.00     0.209 C 
HETATM   25  O   UNL     1       6.870  -1.399   0.000  1.00  0.00    -0.644 OA
HETATM   26  O   UNL     1       9.468  -1.399   0.000  1.00  0.00    -0.644 OA
ENDBRANCH   6  24
TORSDOF 5
