REMARK  4 active torsions:
REMARK  status: ('A' for Active; 'I' for Inactive)
REMARK    1  A    between atoms: N_4  and  C_7 
REMARK    2  A    between atoms: N_4  and  N_5 
REMARK    3  A    between atoms: N_5  and  C_12 
REMARK    4  A    between atoms: C_14  and  S_18 
ROOT
HETATM    1  N   UNL     1       2.324  -2.525   0.000  1.00  0.00    -0.157 NA
ENDROOT
BRANCH   1   2
HETATM    2  N   UNL     1       2.324  -1.024   0.000  1.00  0.00    -0.149 NA
BRANCH   2   3
HETATM    3  C   UNL     1       1.024  -0.275   0.000  1.00  0.00     0.123 A 
HETATM    4  C   UNL     1      -0.275  -1.024   0.000  1.00  0.00     0.208 A 
HETATM    5  N   UNL     1      -1.574  -0.275   0.000  1.00  0.00    -0.314 N 
HETATM    6  O   UNL     1      -0.275  -2.525   0.000  1.00  0.00    -0.170 OA
HETATM    7  H   UNL     1      -2.873  -1.024   0.000  1.00  0.00     0.170 HD
HETATM    8  C   UNL     1      -1.574   1.226   0.000  1.00  0.00     0.170 A 
HETATM    9  C   UNL     1      -0.275   1.976   0.000  1.00  0.00     0.079 A 
HETATM   10  O   UNL     1      -2.873   1.976   0.000  1.00  0.00    -0.176 OA
HETATM   11  C   UNL     1       1.024   1.226   0.000  1.00  0.00     0.060 A 
ENDBRANCH   2   3
ENDBRANCH   1   2
BRANCH   1  12
HETATM   12  C   UNL     1       3.623  -3.275   0.000  1.00  0.00     0.058 A 
HETATM   13  C   UNL     1       4.922  -2.525   0.000  1.00  0.00     0.044 A 
HETATM   14  C   UNL     1       6.221  -3.275   0.000  1.00  0.00     0.024 A 
HETATM   15  C   UNL     1       6.221  -4.774   0.000  1.00  0.00     0.132 A 
HETATM   16  C   UNL     1       4.922  -5.524   0.000  1.00  0.00     0.024 A 
HETATM   17  C   UNL     1       3.623  -4.774   0.000  1.00  0.00     0.044 A 
BRANCH  15  18
HETATM   18  S   UNL     1       7.520  -5.524   0.000  1.00  0.00     0.281 S 
HETATM   19  O   UNL     1       6.770  -6.824   0.000  1.00  0.00    -0.201 OA
HETATM   20  O   UNL     1       8.270  -4.226   0.000  1.00  0.00    -0.201 OA
HETATM   21  N   UNL     1       8.819  -6.274   0.000  1.00  0.00    -0.047 N 
ENDBRANCH  15  18
ENDBRANCH   1  12
TORSDOF 4
