REMARK  7 active torsions:
REMARK  status: ('A' for Active; 'I' for Inactive)
REMARK    1  A    between atoms: C_3  and  C_16 
REMARK    2  A    between atoms: C_5  and  O_11 
REMARK    3  A    between atoms: CA_6  and  C_12 
REMARK    4  A    between atoms: C_7  and  C_9 
REMARK    5  A    between atoms: C_9  and  O_11 
REMARK    6  A    between atoms: C_16  and  O_18 
REMARK    7  A    between atoms: O_18  and  C_19 
ROOT
HETATM    1  N   UNL     1       0.156   1.770   0.000  1.00  0.00    -0.344 N 
HETATM    2  H   UNL     1       0.543   3.219   0.000  1.00  0.00     0.166 HD
HETATM    3  C   UNL     1       1.101   0.605   0.000  1.00  0.00     0.104 A 
HETATM    4  C   UNL     1       0.285  -0.654   0.000  1.00  0.00     0.022 A 
HETATM    5  C   UNL     1      -1.164  -0.266   0.000  1.00  0.00     0.116 A 
HETATM    6  CA  UNL     1      -1.244   1.232   0.000  1.00  0.00     0.144 A 
HETATM    7  C   UNL     1       0.823  -2.054   0.000  1.00  0.00     0.035 C 
ENDROOT
BRANCH   3   8
HETATM    8  C   UNL     1       2.599   0.684   0.000  1.00  0.00     0.244 C 
HETATM    9  O   UNL     1       3.417  -0.573   0.000  1.00  0.00    -0.162 OA
BRANCH   8  10
HETATM   10  O   UNL     1       3.279   2.021   0.000  1.00  0.00    -0.308 OA
BRANCH  10  11
HETATM   11  C   UNL     1       4.777   2.101   0.000  1.00  0.00     0.151 C 
HETATM   12  C   UNL     1       5.595   0.844   0.000  1.00  0.00     0.035 C 
ENDBRANCH  10  11
ENDBRANCH   8  10
ENDBRANCH   3   8
BRANCH   6  13
HETATM   13  C   UNL     1      -2.502   2.048   0.000  1.00  0.00     0.229 C 
HETATM   14  O   UNL     1      -3.839   1.366   0.000  1.00  0.00    -0.643 OA
HETATM   15  OXT UNL     1      -2.425   3.546   0.000  1.00  0.00    -0.643 OA
ENDBRANCH   6  13
BRANCH   5  16
HETATM   16  O   UNL     1      -2.329  -1.211   0.000  1.00  0.00    -0.302 OA
BRANCH  16  17
HETATM   17  C   UNL     1      -2.094  -2.692   0.000  1.00  0.00     0.274 C 
HETATM   18  O   UNL     1      -0.693  -3.229   0.000  1.00  0.00    -0.190 OA
BRANCH  17  19
HETATM   19  C   UNL     1      -3.259  -3.637   0.000  1.00  0.00     0.065 C 
HETATM   20  C   UNL     1      -3.023  -5.119   0.000  1.00  0.00     0.005 C 
ENDBRANCH  17  19
ENDBRANCH  16  17
ENDBRANCH   5  16
TORSDOF 7
