REMARK  2 active torsions:
REMARK  status: ('A' for Active; 'I' for Inactive)
REMARK    1  A    between atoms: C_3  and  O_11 
REMARK    2  A    between atoms: CA_6  and  C_7 
ROOT
HETATM    1  N   UNL     1       1.574   4.774   0.000  1.00  0.00    -0.246 NA
HETATM    2  C   UNL     1       2.873   5.524   0.000  1.00  0.00     0.077 A 
HETATM    3  C   UNL     1       4.172   4.774   0.000  1.00  0.00     0.086 A 
HETATM    4  C   UNL     1       4.172   3.275   0.000  1.00  0.00     0.059 A 
HETATM    5  C   UNL     1       2.873   2.525   0.000  1.00  0.00     0.059 A 
HETATM    6  CA  UNL     1       1.574   3.275   0.000  1.00  0.00     0.123 A 
HETATM    7  C   UNL     1       2.873   7.024   0.000  1.00  0.00     0.054 C 
ENDROOT
BRANCH   6   8
HETATM    8  C   UNL     1       0.275   2.525   0.000  1.00  0.00     0.225 C 
HETATM    9  O   UNL     1      -1.024   3.275   0.000  1.00  0.00    -0.643 OA
HETATM   10  OXT UNL     1       0.275   1.024   0.000  1.00  0.00    -0.643 OA
ENDBRANCH   6   8
BRANCH   3  11
HETATM   11  O   UNL     1       5.471   5.524   0.000  1.00  0.00    -0.331 OA
HETATM   12  C   UNL     1       6.770   4.774   0.000  1.00  0.00     0.181 C 
ENDBRANCH   3  11
TORSDOF 2
