REMARK  0 active torsions:
REMARK  status: ('A' for Active; 'I' for Inactive)
ROOT
HETATM    1  N   UNL     1       0.750   3.000   0.000  1.00  0.00    -0.289 NA
HETATM    2  C   UNL     1       2.049   3.750   0.000  1.00  0.00     0.165 A 
HETATM    3  C   UNL     1       3.348   3.000   0.000  1.00  0.00     0.078 A 
HETATM    4  C   UNL     1       3.348   1.500   0.000  1.00  0.00    -0.022 A 
HETATM    5  C   UNL     1       2.049   0.750   0.000  1.00  0.00     0.049 A 
HETATM    6  C   UNL     1       0.750   1.500   0.000  1.00  0.00     0.125 A 
HETATM    7  N   UNL     1       4.647   3.750   0.000  1.00  0.00    -0.224 NA
HETATM    8  C   UNL     1       5.946   3.000   0.000  1.00  0.00     0.205 A 
HETATM    9  O   UNL     1       7.245   3.750   0.000  1.00  0.00    -0.170 OA
HETATM   10  C   UNL     1       5.946   1.500   0.000  1.00  0.00     0.004 A 
HETATM   11  C   UNL     1       7.245   0.750   0.000  1.00  0.00     0.030 C 
HETATM   12  C   UNL     1       4.647   0.750   0.000  1.00  0.00     0.049 A 
ENDROOT
TORSDOF 0
