REMARK  0 active torsions:
REMARK  status: ('A' for Active; 'I' for Inactive)
ROOT
HETATM    1 CL   UNL     1       2.324   2.525   0.000  1.00  0.00    -0.081 Cl
HETATM    2 CL   UNL     1       2.324  -0.475   0.000  1.00  0.00    -0.081 Cl
HETATM    3  C   UNL     1       3.623   1.774   0.000  1.00  0.00     0.081 A 
HETATM    4  C   UNL     1       3.623   0.275   0.000  1.00  0.00     0.081 A 
HETATM    5  C   UNL     1       4.922  -0.475   0.000  1.00  0.00     0.087 A 
HETATM    6  C   UNL     1       4.922   2.525   0.000  1.00  0.00     0.089 A 
HETATM    7 CL   UNL     1       4.922   4.024   0.000  1.00  0.00    -0.080 Cl
HETATM    8 CL   UNL     1       4.922  -1.976   0.000  1.00  0.00    -0.080 Cl
HETATM    9  C   UNL     1       6.221   1.774   0.000  1.00  0.00     0.127 A 
HETATM   10  C   UNL     1       6.221   0.275   0.000  1.00  0.00     0.101 A 
HETATM   11  H   UNL     1       8.111  -1.616   0.000  1.00  0.00     0.184 HD
HETATM   12  N   UNL     1       7.647   2.238   0.000  1.00  0.00    -0.156 NA
HETATM   13  N   UNL     1       7.647  -0.189   0.000  1.00  0.00    -0.278 N 
HETATM   14  N   UNL     1       8.529   1.024   0.000  1.00  0.00     0.003 NA
ENDROOT
TORSDOF 0
