REMARK  1 active torsions:
REMARK  status: ('A' for Active; 'I' for Inactive)
REMARK    1  A    between atoms: C_5  and  C_7 
ROOT
HETATM    1  O   UNL     1      -0.566   4.169   0.000  1.00  0.00    -0.304 OA
HETATM    2  O   UNL     1       0.647   6.551   0.000  1.00  0.00    -0.163 OA
HETATM    3  C   UNL     1       0.647   5.051   0.000  1.00  0.00     0.230 A 
HETATM    4  C   UNL     1       1.861   4.169   0.000  1.00  0.00     0.061 A 
HETATM    5  C   UNL     1       1.397   2.743   0.000  1.00  0.00    -0.008 A 
HETATM    6  C   UNL     1      -0.102   2.743   0.000  1.00  0.00     0.173 A 
HETATM    7  C   UNL     1       2.279   1.529   0.000  1.00  0.00     0.029 C 
ENDROOT
BRANCH   4   8
HETATM    8  C   UNL     1       3.288   4.633   0.000  1.00  0.00     0.075 A 
HETATM    9  O   UNL     1       3.751   6.059   0.000  1.00  0.00    -0.335 OA
HETATM   10  C   UNL     1       5.251   6.059   0.000  1.00  0.00     0.149 A 
HETATM   11  C   UNL     1       5.715   4.633   0.000  1.00  0.00     0.037 A 
HETATM   12  C   UNL     1       4.501   3.751   0.000  1.00  0.00     0.054 A 
HETATM   13  C   UNL     1       7.141   4.169   0.000  1.00  0.00     0.003 C 
ENDBRANCH   4   8
TORSDOF 1
