REMARK  3 active torsions:
REMARK  status: ('A' for Active; 'I' for Inactive)
REMARK    1  A    between atoms: N_2  and  C_13 
REMARK    2  A    between atoms: C_11  and  C_12 
REMARK    3  A    between atoms: C_12  and  C_13 
ROOT
HETATM    1  O   UNL     1      -2.476   0.712   0.000  1.00  0.00    -0.176 OA
HETATM    2  N   UNL     1       0.170   0.331   0.000  1.00  0.00    -0.313 N 
HETATM    3  O   UNL     1       2.502  -1.313   0.000  1.00  0.00    -0.340 OA
HETATM    4  C   UNL     1       1.069  -0.870   0.000  1.00  0.00     0.161 A 
HETATM    5  C   UNL     1       0.204  -2.096   0.000  1.00  0.00     0.056 A 
HETATM    6  C   UNL     1       1.103  -3.297   0.000  1.00  0.00     0.037 A 
HETATM    7  C   UNL     1       2.523  -2.813   0.000  1.00  0.00     0.144 A 
HETATM    8  C   UNL     1      -1.229  -1.652   0.000  1.00  0.00     0.077 A 
HETATM    9  C   UNL     1      -1.250  -0.152   0.000  1.00  0.00     0.169 A 
HETATM   10  C   UNL     1       1.933   0.356   0.000  1.00  0.00     0.054 C 
ENDROOT
BRANCH   2  11
HETATM   11  C   UNL     1       0.613   1.764   0.000  1.00  0.00     0.105 C 
BRANCH  11  12
HETATM   12  C   UNL     1      -0.406   2.865   0.000  1.00  0.00     0.024 C 
BRANCH  12  13
HETATM   13  C   UNL     1      -1.869   2.532   0.000  1.00  0.00     0.002 C 
HETATM   14  C   UNL     1      -2.888   3.632   0.000  1.00  0.00     0.000 C 
ENDBRANCH  12  13
ENDBRANCH  11  12
ENDBRANCH   2  11
TORSDOF 3
