REMARK  7 active torsions:
REMARK  status: ('A' for Active; 'I' for Inactive)
REMARK    1  A    between atoms: C_4  and  C_24 
REMARK    2  A    between atoms: C_5  and  N_25 
REMARK    3  A    between atoms: C_13  and  C_17 
REMARK    4  A    between atoms: C_14  and  C_23 
REMARK    5  A    between atoms: C_23  and  C_24 
REMARK    6  A    between atoms: N_25  and  C_26 
REMARK    7  A    between atoms: N_25  and  C_28 
ROOT
HETATM    1  N   UNL     1      -9.843   9.750   0.000  1.00  0.00    -0.259 NA
HETATM    2  C   UNL     1     -11.142  12.000   0.000  1.00  0.00     0.045 A 
HETATM    3  C   UNL     1     -11.142  10.500   0.000  1.00  0.00     0.054 A 
HETATM    4  C   UNL     1     -12.441  12.750   0.000  1.00  0.00     0.007 A 
HETATM    5  C   UNL     1     -12.441   9.750   0.000  1.00  0.00    -0.013 A 
HETATM    6  C   UNL     1     -13.740  12.000   0.000  1.00  0.00     0.005 A 
HETATM    7  C   UNL     1     -12.441   8.250   0.000  1.00  0.00    -0.027 A 
HETATM    8  C   UNL     1      -9.843   8.250   0.000  1.00  0.00     0.041 A 
HETATM    9  C   UNL     1     -11.142   7.500   0.000  1.00  0.00     0.067 A 
HETATM   10  C   UNL     1     -13.740  10.500   0.000  1.00  0.00     0.027 A 
ENDROOT
BRANCH   8  11
HETATM   11  C   UNL     1      -8.544   7.500   0.000  1.00  0.00     0.042 C 
BRANCH  11  12
HETATM   12  C   UNL     1      -8.544   6.000   0.000  1.00  0.00     0.006 C 
BRANCH  12  13
HETATM   13  C   UNL     1      -7.245   5.250   0.000  1.00  0.00     0.001 A 
HETATM   14  C   UNL     1      -5.946   6.000   0.000  1.00  0.00     0.006 A 
HETATM   15  C   UNL     1      -4.647   5.250   0.000  1.00  0.00     0.039 A 
HETATM   16  C   UNL     1      -4.647   3.750   0.000  1.00  0.00     0.010 A 
HETATM   17  C   UNL     1      -5.946   3.000   0.000  1.00  0.00     0.039 A 
HETATM   18  C   UNL     1      -7.245   3.750   0.000  1.00  0.00     0.006 A 
BRANCH  16  19
HETATM   19  N   UNL     1      -3.348   3.000   0.000  1.00  0.00    -0.355 N 
BRANCH  19  20
HETATM   20  C   UNL     1      -2.049   3.750   0.000  1.00  0.00     0.101 C 
HETATM   21  C   UNL     1      -0.750   3.000   0.000  1.00  0.00     0.026 C 
ENDBRANCH  19  20
BRANCH  19  22
HETATM   22  C   UNL     1      -3.348   1.500   0.000  1.00  0.00     0.101 C 
HETATM   23  C   UNL     1      -2.049   0.750   0.000  1.00  0.00     0.026 C 
ENDBRANCH  19  22
ENDBRANCH  16  19
ENDBRANCH  12  13
ENDBRANCH  11  12
ENDBRANCH   8  11
BRANCH   7  24
HETATM   24  C   UNL     1     -13.740   7.500   0.000  1.00  0.00    -0.048 A 
HETATM   25  C   UNL     1     -13.740   6.000   0.000  1.00  0.00     0.022 A 
HETATM   26  C   UNL     1     -15.039   5.250   0.000  1.00  0.00     0.004 A 
HETATM   27  C   UNL     1     -16.338   6.000   0.000  1.00  0.00     0.001 A 
HETATM   28  C   UNL     1     -16.338   7.500   0.000  1.00  0.00     0.004 A 
HETATM   29  C   UNL     1     -15.039   8.250   0.000  1.00  0.00     0.022 A 
ENDBRANCH   7  24
TORSDOF 7
