REMARK  4 active torsions:
REMARK  status: ('A' for Active; 'I' for Inactive)
REMARK    1  A    between atoms: C_6  and  S_15 
REMARK    2  A    between atoms: C_7  and  C_20 
REMARK    3  A    between atoms: S_15  and  N_18 
REMARK    4  A    between atoms: N_18  and  N_19 
REMARK       I    between atoms: N_19  and  C_20 
ROOT
HETATM    1  N   UNL     1      -6.870  -0.101   0.000  1.00  0.00    -0.056 NA
ENDROOT
BRANCH   1   2
HETATM    2  S   UNL     1      -6.870   1.399   0.000  1.00  0.00     0.280 S 
HETATM    3  O   UNL     1      -8.370   1.399   0.000  1.00  0.00    -0.202 OA
HETATM    4  O   UNL     1      -5.370   1.399   0.000  1.00  0.00    -0.202 OA
BRANCH   2   5
HETATM    5  C   UNL     1      -6.870   2.900   0.000  1.00  0.00     0.131 A 
HETATM    6  C   UNL     1      -5.571   3.650   0.000  1.00  0.00     0.018 A 
HETATM    7  C   UNL     1      -5.571   5.149   0.000  1.00  0.00     0.001 A 
HETATM    8  C   UNL     1      -6.870   5.899   0.000  1.00  0.00     0.000 A 
HETATM    9  C   UNL     1      -8.169   5.149   0.000  1.00  0.00     0.001 A 
HETATM   10  C   UNL     1      -6.870   7.399   0.000  1.00  0.00     0.000 C 
HETATM   11  C   UNL     1      -8.169   3.650   0.000  1.00  0.00     0.018 A 
ENDBRANCH   2   5
ENDBRANCH   1   2
BRANCH   1  12
HETATM   12  N   UNL     1      -5.461  -0.614   0.000  1.00  0.00    -0.114 NA
HETATM   13  C   UNL     1      -5.200  -2.091   0.000  1.00  0.00     0.210 C 
HETATM   14  O   UNL     1      -3.791  -2.604   0.000  1.00  0.00    -0.172 OA
BRANCH  13  15
HETATM   15  C   UNL     1      -6.349  -3.055   0.000  1.00  0.00     0.062 A 
HETATM   16  C   UNL     1      -8.055  -3.356   0.000  1.00  0.00     0.007 A 
HETATM   17  C   UNL     1      -8.647  -4.983   0.000  1.00  0.00     0.001 A 
HETATM   18  C   UNL     1      -8.908  -3.506   0.000  1.00  0.00     0.001 A 
HETATM   19  C   UNL     1      -7.759  -2.542   0.000  1.00  0.00     0.008 A 
HETATM   20  C   UNL     1      -7.238  -5.496   0.000  1.00  0.00     0.001 A 
HETATM   21  C   UNL     1      -6.089  -4.532   0.000  1.00  0.00     0.008 A 
ENDBRANCH  13  15
ENDBRANCH   1  12
TORSDOF 4
