REMARK  2 active torsions:
REMARK  status: ('A' for Active; 'I' for Inactive)
REMARK    1  A    between atoms: C_6  and  C_7 
REMARK    2  A    between atoms: C_9  and  N_22 
ROOT
HETATM    1  C   UNL     1      -6.455   6.210   0.000  1.00  0.00     0.000 A 
HETATM    2  C   UNL     1      -5.705   4.910   0.000  1.00  0.00     0.088 A 
HETATM    3  C   UNL     1      -7.205   4.910   0.000  1.00  0.00     0.111 A 
HETATM    4  C   UNL     1      -5.548   3.419   0.000  1.00  0.00    -0.036 A 
HETATM    5  C   UNL     1      -4.334   5.521   0.000  1.00  0.00    -0.036 A 
HETATM    6  C   UNL     1      -3.871   6.947   0.000  1.00  0.00     0.023 A 
HETATM    7  C   UNL     1      -2.404   7.259   0.000  1.00  0.00     0.005 A 
HETATM    8  C   UNL     1      -6.552   2.304   0.000  1.00  0.00     0.023 A 
HETATM    9  C   UNL     1      -6.088   0.877   0.000  1.00  0.00     0.005 A 
HETATM   10  C   UNL     1      -1.400   6.144   0.000  1.00  0.00     0.005 A 
HETATM   11  C   UNL     1      -3.331   4.406   0.000  1.00  0.00    -0.034 A 
HETATM   12  C   UNL     1      -4.081   3.107   0.000  1.00  0.00    -0.034 A 
HETATM   13  C   UNL     1      -4.621   0.566   0.000  1.00  0.00     0.005 A 
HETATM   14  C   UNL     1      -1.863   4.718   0.000  1.00  0.00     0.025 A 
HETATM   15  C   UNL     1      -3.617   1.680   0.000  1.00  0.00     0.025 A 
ENDROOT
BRANCH   1  16
HETATM   16  C   UNL     1      -6.455   7.710   0.000  1.00  0.00    -0.046 A 
HETATM   17  C   UNL     1      -5.156   8.460   0.000  1.00  0.00     0.022 A 
HETATM   18  C   UNL     1      -5.156   9.960   0.000  1.00  0.00     0.004 A 
HETATM   19  C   UNL     1      -6.455  10.710   0.000  1.00  0.00     0.001 A 
HETATM   20  C   UNL     1      -7.754   9.960   0.000  1.00  0.00     0.004 A 
HETATM   21  C   UNL     1      -7.754   8.460   0.000  1.00  0.00     0.022 A 
ENDBRANCH   1  16
BRANCH   3  22
HETATM   22  N   UNL     1      -8.504   4.160   0.000  1.00  0.00    -0.117 N 
HETATM   23  O   UNL     1      -8.504   2.660   0.000  1.00  0.00    -0.532 OA
HETATM   24  O   UNL     1      -9.803   4.910   0.000  1.00  0.00    -0.532 OA
ENDBRANCH   3  22
TORSDOF 2
