REMARK  0 active torsions:
REMARK  status: ('A' for Active; 'I' for Inactive)
ROOT
HETATM    1  N   UNL     1      -2.620  -3.140   0.000  1.00  0.00    -0.352 N 
HETATM    2  H   UNL     1      -2.620  -1.640   0.000  1.00  0.00     0.163 HD
HETATM    3  O   UNL     1       0.020  -3.558   0.000  1.00  0.00    -0.172 OA
HETATM    4  C   UNL     1      -3.833  -4.021   0.000  1.00  0.00     0.085 A 
HETATM    5  C   UNL     1      -3.370  -5.448   0.000  1.00  0.00    -0.012 A 
HETATM    6  C   UNL     1      -5.260  -4.485   0.000  1.00  0.00     0.046 A 
HETATM    7  C   UNL     1      -4.796  -5.912   0.000  1.00  0.00    -0.044 A 
HETATM    8  C   UNL     1      -1.870  -5.448   0.000  1.00  0.00     0.017 A 
HETATM    9  C   UNL     1      -1.406  -4.021   0.000  1.00  0.00     0.183 A 
HETATM   10  C   UNL     1      -5.477  -7.248   0.000  1.00  0.00     0.026 C 
HETATM   11  C   UNL     1      -4.514  -2.685   0.000  1.00  0.00     0.027 C 
HETATM   12  C   UNL     1      -0.988  -6.662   0.000  1.00  0.00     0.035 C 
ENDROOT
TORSDOF 0
