REMARK  16 active torsions:
REMARK  status: ('A' for Active; 'I' for Inactive)
REMARK    1  A    between atoms: O_1  and  C_21 
REMARK    2  A    between atoms: S_2  and  C_13 
REMARK    3  A    between atoms: S_2  and  C_20 
REMARK    4  A    between atoms: S_2  and  C_18 
REMARK    5  A    between atoms: O_4  and  C_20 
REMARK    6  A    between atoms: C_5  and  C_8 
REMARK    7  A    between atoms: C_5  and  C_18 
REMARK    8  A    between atoms: C_6  and  C_19 
REMARK    9  A    between atoms: C_8  and  C_15 
REMARK   10  A    between atoms: C_9  and  C_10 
REMARK   11  A    between atoms: C_10  and  C_18 
REMARK   12  A    between atoms: C_14  and  C_15 
REMARK   13  A    between atoms: C_15  and  C_20 
REMARK   14  A    between atoms: C_16  and  C_19 
REMARK   15  A    between atoms: C_17  and  C_21 
REMARK   16  A    between atoms: C_19  and  C_21 
ROOT
HETATM    1  O   UNL     1      -0.459  -1.650   0.000  1.00  0.00     0.000 OA
HETATM    2  S   UNL     1       0.013  -0.833   0.000  1.00  0.00    -0.220 SA
HETATM    3  O   UNL     1       0.013   1.851   0.000  1.00  0.00    -0.308 OA
HETATM    4  O   UNL     1       0.244  -1.698   0.000  1.00  0.00     0.000 OA
HETATM    5  C   UNL     1       0.013   0.986   0.000  1.00  0.00     0.077 A 
HETATM    6  C   UNL     1      -0.775   0.531   0.000  1.00  0.00     0.050 A 
HETATM    7  C   UNL     1      -1.563   0.986   0.000  1.00  0.00     0.048 A 
HETATM    8  C   UNL     1      -2.351   0.531   0.000  1.00  0.00     0.015 A 
HETATM    9  C   UNL     1      -1.275   0.271   0.000  1.00  0.00     0.021 A 
HETATM   10  C   UNL     1       0.817  -0.353   0.000  1.00  0.00     0.034 A 
HETATM   11  C   UNL     1      -0.775  -0.379   0.000  1.00  0.00     0.026 A 
HETATM   12  C   UNL     1      -2.351  -0.379   0.000  1.00  0.00     0.015 A 
HETATM   13  C   UNL     1      -1.935  -0.129   0.000  1.00  0.00     0.020 A 
HETATM   14  C   UNL     1      -1.563  -0.833   0.000  1.00  0.00     0.016 A 
ENDROOT
BRANCH   5  15
HETATM   15  C   UNL     1       0.817   0.556   0.000  1.00  0.00     0.044 A 
HETATM   16  C   UNL     1       1.605   1.011   0.000  1.00  0.00     0.010 A 
HETATM   17  C   UNL     1       2.393   0.556   0.000  1.00  0.00     0.010 A 
HETATM   18  C   UNL     1       1.895   0.271   0.000  1.00  0.00     0.018 A 
HETATM   19  C   UNL     1       2.393  -0.353   0.000  1.00  0.00     0.026 A 
HETATM   20  C   UNL     1       1.605  -0.808   0.000  1.00  0.00     0.039 A 
HETATM   21  C   UNL     1       1.235  -0.129   0.000  1.00  0.00     0.058 A 
ENDBRANCH   5  15
TORSDOF 16
