REMARK  0 active torsions:
REMARK  status: ('A' for Active; 'I' for Inactive)
ROOT
HETATM    1  C   UNL     1       2.728  -7.276   0.000  1.00  0.00    -0.017 A 
HETATM    2  C   UNL     1       4.027  -6.526   0.000  1.00  0.00     0.031 A 
HETATM    3  C   UNL     1       1.429  -6.526   0.000  1.00  0.00    -0.009 A 
HETATM    4  C   UNL     1       4.027  -5.026   0.000  1.00  0.00     0.026 A 
HETATM    5  C   UNL     1       1.429  -5.026   0.000  1.00  0.00    -0.025 A 
HETATM    6  C   UNL     1       0.130  -7.276   0.000  1.00  0.00    -0.009 A 
HETATM    7  C   UNL     1      -1.170  -6.526   0.000  1.00  0.00    -0.017 A 
HETATM    8  C   UNL     1      -2.469  -7.276   0.000  1.00  0.00     0.031 A 
HETATM    9  C   UNL     1       0.130  -8.776   0.000  1.00  0.00    -0.025 A 
HETATM   10  C   UNL     1      -2.469  -8.776   0.000  1.00  0.00     0.026 A 
HETATM   11  C   UNL     1       2.728  -4.276   0.000  1.00  0.00    -0.047 A 
HETATM   12  C   UNL     1      -1.170  -9.526   0.000  1.00  0.00    -0.047 A 
HETATM   13  C   UNL     1      -1.170  -5.026   0.000  1.00  0.00     0.033 A 
HETATM   14  C   UNL     1      -1.170 -11.026   0.000  1.00  0.00     0.026 C 
HETATM   15  C   UNL     1      -2.469  -4.276   0.000  1.00  0.00     0.017 C 
HETATM   16  N   UNL     1      -3.768  -3.526   0.000  1.00  0.00    -0.096 N 
HETATM   17  C   UNL     1       1.429  -9.526   0.000  1.00  0.00     0.061 A 
HETATM   18  C   UNL     1       0.129  -4.276   0.000  1.00  0.00     0.061 A 
HETATM   19  C   UNL     1       2.728  -8.776   0.000  1.00  0.00     0.033 A 
HETATM   20  C   UNL     1       2.728  -2.776   0.000  1.00  0.00     0.026 C 
HETATM   21  C   UNL     1       4.027  -9.526   0.000  1.00  0.00     0.017 C 
HETATM   22  N   UNL     1       5.326 -10.276   0.000  1.00  0.00    -0.096 N 
ENDROOT
TORSDOF 0
