REMARK  3 active torsions:
REMARK  status: ('A' for Active; 'I' for Inactive)
REMARK    1  A    between atoms: C_8  and  S_12 
REMARK    2  A    between atoms: S_12  and  C_13 
REMARK    3  A    between atoms: C_13  and  C_14 
ROOT
HETATM    1 CL   UNL     1      -8.544  -0.750   0.000  1.00  0.00    -0.091 Cl
HETATM    2  N   UNL     1      -3.348  -0.750   0.000  1.00  0.00    -0.270 NA
HETATM    3  C   UNL     1      -5.946  -0.750   0.000  1.00  0.00     0.079 A 
HETATM    4  C   UNL     1      -4.647  -1.500   0.000  1.00  0.00     0.056 A 
HETATM    5  C   UNL     1      -7.245  -1.500   0.000  1.00  0.00     0.020 A 
HETATM    6  C   UNL     1      -4.647  -3.000   0.000  1.00  0.00    -0.003 A 
HETATM    7  C   UNL     1      -7.245  -3.000   0.000  1.00  0.00     0.039 A 
HETATM    8  C   UNL     1      -3.348  -3.750   0.000  1.00  0.00     0.017 A 
HETATM    9  C   UNL     1      -2.049  -1.500   0.000  1.00  0.00     0.148 A 
HETATM   10  C   UNL     1      -2.049  -3.000   0.000  1.00  0.00    -0.014 A 
HETATM   11  C   UNL     1      -5.946  -3.750   0.000  1.00  0.00     0.033 A 
HETATM   12  C   UNL     1      -0.750  -3.750   0.000  1.00  0.00     0.029 C 
ENDROOT
BRANCH   8  13
HETATM   13  S   UNL     1      -3.348  -5.250   0.000  1.00  0.00    -0.103 SA
BRANCH  13  14
HETATM   14  C   UNL     1      -1.938  -5.763   0.000  1.00  0.00     0.159 C 
BRANCH  14  15
HETATM   15  C   UNL     1      -1.678  -7.240   0.000  1.00  0.00     0.197 C 
HETATM   16  O   UNL     1      -2.827  -8.204   0.000  1.00  0.00    -0.647 OA
HETATM   17  O   UNL     1      -0.269  -7.753   0.000  1.00  0.00    -0.647 OA
ENDBRANCH  14  15
ENDBRANCH  13  14
ENDBRANCH   8  13
TORSDOF 3
