REMARK  2 active torsions:
REMARK  status: ('A' for Active; 'I' for Inactive)
REMARK    1  A    between atoms: N_1  and  C_5 
REMARK    2  A    between atoms: C_2  and  C_9 
ROOT
HETATM    1  N   UNL     1       2.871   2.250   0.000  1.00  0.00    -0.356 N 
HETATM    2  C   UNL     1       4.371   2.250   0.000  1.00  0.00     0.051 A 
HETATM    3  C   UNL     1       4.371   0.750   0.000  1.00  0.00     0.065 A 
HETATM    4  C   UNL     1       2.871   0.750   0.000  1.00  0.00     0.107 A 
ENDROOT
BRANCH   1   5
HETATM    5  C   UNL     1       1.811   3.311   0.000  1.00  0.00     0.064 C 
HETATM    6  C   UNL     1       0.750   2.250   0.000  1.00  0.00     0.022 C 
HETATM    7  C   UNL     1       0.750   4.371   0.000  1.00  0.00     0.022 C 
HETATM    8  C   UNL     1       2.871   4.371   0.000  1.00  0.00     0.022 C 
ENDBRANCH   1   5
BRANCH   2   9
HETATM    9  C   UNL     1       5.432   3.311   0.000  1.00  0.00     0.377 C 
HETATM   10  N   UNL     1       6.881   2.922   0.000  1.00  0.00     0.625 N 
ENDBRANCH   2   9
TORSDOF 2
