REMARK  1 active torsions:
REMARK  status: ('A' for Active; 'I' for Inactive)
REMARK    1  A    between atoms: C_2  and  N_13 
ROOT
HETATM    1  C   UNL     1      -4.647  -0.750   0.000  1.00  0.00     0.070 A 
HETATM    2  C   UNL     1      -3.348  -1.500   0.000  1.00  0.00     0.085 A 
HETATM    3  C   UNL     1      -5.946  -1.500   0.000  1.00  0.00    -0.025 A 
HETATM    4  C   UNL     1      -3.348  -3.000   0.000  1.00  0.00    -0.027 A 
HETATM    5  C   UNL     1      -5.946  -3.000   0.000  1.00  0.00     0.059 A 
HETATM    6  C   UNL     1      -4.647  -3.750   0.000  1.00  0.00     0.031 A 
HETATM    7  C   UNL     1      -8.384  -2.570   0.000  1.00  0.00     0.193 A 
HETATM    8 CL   UNL     1      -8.123  -1.093   0.000  1.00  0.00    -0.138 Cl
HETATM    9 CL   UNL     1      -9.861  -2.310   0.000  1.00  0.00    -0.083 Cl
HETATM   10 CL   UNL     1      -8.644  -4.047   0.000  1.00  0.00    -0.083 Cl
HETATM   11  C   UNL     1      -7.245  -0.750   0.000  1.00  0.00     0.046 A 
HETATM   12  C   UNL     1      -6.459  -4.410   0.000  1.00  0.00     0.008 C 
HETATM   13  C   UNL     1      -2.049  -3.750   0.000  1.00  0.00     0.028 C 
ENDROOT
BRANCH   2  14
HETATM   14  N   UNL     1      -2.049  -0.750   0.000  1.00  0.00    -0.101 NA
HETATM   15  O   UNL     1      -0.750  -1.500   0.000  1.00  0.00    -0.061 OA
ENDBRANCH   2  14
TORSDOF 1
