REMARK  3 active torsions:
REMARK  status: ('A' for Active; 'I' for Inactive)
REMARK    1  A    between atoms: N_1  and  C_8 
REMARK    2  A    between atoms: N_1  and  N_2 
REMARK    3  A    between atoms: N_2  and  N_3 
ROOT
HETATM    1  N   UNL     1      -0.750   3.750   0.000  1.00  0.00    -0.140 NA
ENDROOT
BRANCH   1   2
HETATM    2  C   UNL     1       0.549   3.000   0.000  1.00  0.00     0.060 A 
HETATM    3  C   UNL     1       0.549   1.500   0.000  1.00  0.00     0.043 A 
HETATM    4  C   UNL     1       1.848   0.750   0.000  1.00  0.00     0.006 A 
HETATM    5  C   UNL     1       3.147   1.500   0.000  1.00  0.00     0.001 A 
HETATM    6  C   UNL     1       3.147   3.000   0.000  1.00  0.00     0.006 A 
HETATM    7  C   UNL     1       1.848   3.750   0.000  1.00  0.00     0.043 A 
ENDBRANCH   1   2
BRANCH   1   8
HETATM    8  N   UNL     1      -0.750   5.250   0.000  1.00  0.00    -0.069 NA
BRANCH   8   9
HETATM    9  N   UNL     1      -2.049   6.000   0.000  1.00  0.00    -0.249 N 
HETATM   10  C   UNL     1      -3.348   5.250   0.000  1.00  0.00     0.156 A 
HETATM   11  C   UNL     1      -4.647   6.000   0.000  1.00  0.00     0.168 A 
HETATM   12  O   UNL     1      -4.647   7.500   0.000  1.00  0.00    -0.350 OA
HETATM   13  C   UNL     1      -3.348   8.250   0.000  1.00  0.00     0.168 A 
HETATM   14  C   UNL     1      -2.049   7.500   0.000  1.00  0.00     0.156 A 
ENDBRANCH   8   9
ENDBRANCH   1   8
TORSDOF 3
