REMARK  7 active torsions:
REMARK  status: ('A' for Active; 'I' for Inactive)
REMARK    1  A    between atoms: C_1  and  C_2 
REMARK    2  A    between atoms: C_1  and  N_19 
REMARK    3  A    between atoms: C_2  and  N_20 
REMARK    4  A    between atoms: C_2  and  C_21 
REMARK    5  A    between atoms: C_3  and  N_20 
REMARK    6  A    between atoms: C_9  and  N_19 
REMARK    7  A    between atoms: C_13  and  O_23 
ROOT
HETATM    1  C   UNL     1      -9.843  -3.750   0.000  1.00  0.00     0.073 A 
HETATM    2  C   UNL     1     -11.142  -3.000   0.000  1.00  0.00     0.081 A 
HETATM    3  C   UNL     1     -12.441  -3.750   0.000  1.00  0.00    -0.023 A 
HETATM    4  C   UNL     1     -12.441  -5.250   0.000  1.00  0.00     0.053 A 
HETATM    5  C   UNL     1     -11.142  -6.000   0.000  1.00  0.00     0.126 A 
HETATM    6  C   UNL     1      -9.843  -5.250   0.000  1.00  0.00     0.077 A 
HETATM    7  N   UNL     1     -11.142  -1.500   0.000  1.00  0.00    -0.270 NA
HETATM    8  C   UNL     1     -12.441  -0.750   0.000  1.00  0.00     0.126 A 
HETATM    9  C   UNL     1     -13.740  -1.500   0.000  1.00  0.00     0.031 A 
HETATM   10  C   UNL     1     -13.740  -3.000   0.000  1.00  0.00     0.026 A 
ENDROOT
BRANCH   1  11
HETATM   11  N   UNL     1      -8.544  -3.000   0.000  1.00  0.00    -0.267 NA
BRANCH  11  12
HETATM   12  C   UNL     1      -7.245  -3.750   0.000  1.00  0.00     0.166 C 
BRANCH  12  13
HETATM   13  C   UNL     1      -5.946  -3.000   0.000  1.00  0.00     0.061 C 
BRANCH  13  14
HETATM   14  N   UNL     1      -4.647  -3.750   0.000  1.00  0.00    -0.261 NA
BRANCH  14  15
HETATM   15  C   UNL     1      -3.348  -3.000   0.000  1.00  0.00     0.036 A 
HETATM   16  C   UNL     1      -2.049  -3.750   0.000  1.00  0.00     0.041 A 
HETATM   17  C   UNL     1      -0.750  -3.000   0.000  1.00  0.00     0.006 A 
HETATM   18  C   UNL     1      -0.750  -1.500   0.000  1.00  0.00     0.001 A 
HETATM   19  C   UNL     1      -2.049  -0.750   0.000  1.00  0.00     0.006 A 
HETATM   20  C   UNL     1      -3.348  -1.500   0.000  1.00  0.00     0.041 A 
ENDBRANCH  14  15
ENDBRANCH  13  14
BRANCH  13  21
HETATM   21  C   UNL     1      -5.946  -1.500   0.000  1.00  0.00     0.043 C 
HETATM   22  C   UNL     1      -7.245  -0.750   0.000  1.00  0.00     0.006 C 
ENDBRANCH  13  21
ENDBRANCH  12  13
ENDBRANCH  11  12
ENDBRANCH   1  11
BRANCH   5  23
HETATM   23  O   UNL     1     -11.142  -7.500   0.000  1.00  0.00    -0.353 OA
HETATM   24  C   UNL     1     -12.441  -8.250   0.000  1.00  0.00     0.174 C 
ENDBRANCH   5  23
TORSDOF 7
