REMARK  7 active torsions:
REMARK  status: ('A' for Active; 'I' for Inactive)
REMARK    1  A    between atoms: C_8  and  C_27 
REMARK    2  A    between atoms: C_12  and  C_27 
REMARK    3  A    between atoms: C_13  and  C_23 
REMARK    4  A    between atoms: C_15  and  C_23 
REMARK    5  A    between atoms: C_18  and  O_29 
REMARK    6  A    between atoms: C_19  and  O_21 
REMARK    7  A    between atoms: C_20  and  O_25 
ROOT
HETATM    1  O   UNL     1      -1.949   2.533   0.000  1.00  0.00    -0.345 OA
HETATM    2  C   UNL     1      -0.480   2.838   0.000  1.00  0.00     0.171 A 
HETATM    3  C   UNL     1       0.263   1.535   0.000  1.00  0.00     0.033 A 
HETATM    4  C   UNL     1      -0.746   0.425   0.000  1.00  0.00     0.033 A 
HETATM    5  C   UNL     1      -2.113   1.042   0.000  1.00  0.00     0.171 A 
ENDROOT
BRANCH   4   6
HETATM    6  C   UNL     1      -0.441  -1.044   0.000  1.00  0.00     0.122 C 
HETATM    7  O   UNL     1       0.984  -1.514   0.000  1.00  0.00    -0.191 OA
BRANCH   6   8
HETATM    8  C   UNL     1      -1.560  -2.042   0.000  1.00  0.00    -0.006 A 
HETATM    9  C   UNL     1      -1.255  -3.511   0.000  1.00  0.00     0.077 A 
HETATM   10  C   UNL     1      -2.375  -4.509   0.000  1.00  0.00     0.100 A 
HETATM   11  C   UNL     1      -3.799  -4.039   0.000  1.00  0.00     0.131 A 
HETATM   12  C   UNL     1      -4.104  -2.570   0.000  1.00  0.00     0.100 A 
HETATM   13  C   UNL     1      -2.985  -1.572   0.000  1.00  0.00     0.077 A 
BRANCH  10  14
HETATM   14  O   UNL     1      -2.070  -5.978   0.000  1.00  0.00    -0.330 OA
HETATM   15  C   UNL     1      -0.645  -6.448   0.000  1.00  0.00     0.181 C 
ENDBRANCH  10  14
BRANCH  11  16
HETATM   16  O   UNL     1      -4.918  -5.037   0.000  1.00  0.00    -0.325 OA
HETATM   17  C   UNL     1      -4.613  -6.506   0.000  1.00  0.00     0.182 C 
ENDBRANCH  11  16
BRANCH  12  18
HETATM   18  O   UNL     1      -5.528  -2.100   0.000  1.00  0.00    -0.330 OA
HETATM   19  C   UNL     1      -5.833  -0.631   0.000  1.00  0.00     0.181 C 
ENDBRANCH  12  18
ENDBRANCH   6   8
ENDBRANCH   4   6
BRANCH   3  20
HETATM   20  C   UNL     1       1.754   1.371   0.000  1.00  0.00     0.122 C 
HETATM   21  O   UNL     1       2.358  -0.002   0.000  1.00  0.00    -0.191 OA
BRANCH  20  22
HETATM   22  C   UNL     1       2.642   2.581   0.000  1.00  0.00    -0.012 A 
HETATM   23  C   UNL     1       2.038   3.954   0.000  1.00  0.00     0.031 A 
HETATM   24  C   UNL     1       2.925   5.163   0.000  1.00  0.00     0.057 A 
HETATM   25  C   UNL     1       4.417   5.000   0.000  1.00  0.00     0.093 A 
HETATM   26  O   UNL     1       5.536   5.998   0.000  1.00  0.00    -0.304 OA
HETATM   27  C   UNL     1       5.020   3.626   0.000  1.00  0.00     0.097 A 
HETATM   28  C   UNL     1       6.831   5.242   0.000  1.00  0.00     0.303 A 
HETATM   29  O   UNL     1       6.513   3.776   0.000  1.00  0.00    -0.304 OA
HETATM   30  C   UNL     1       4.133   2.417   0.000  1.00  0.00     0.077 A 
ENDBRANCH  20  22
ENDBRANCH   3  20
TORSDOF 7
