REMARK  3 active torsions:
REMARK  status: ('A' for Active; 'I' for Inactive)
REMARK    1  A    between atoms: C_4  and  C_19 
REMARK    2  A    between atoms: C_8  and  C_19 
REMARK    3  A    between atoms: C_12  and  O_17 
ROOT
HETATM    1  C   UNL     1       4.272   4.399   0.000  1.00  0.00     0.054 A 
HETATM    2  C   UNL     1       4.272   5.899   0.000  1.00  0.00     0.017 A 
HETATM    3  C   UNL     1       5.571   3.650   0.000  1.00  0.00     0.096 A 
HETATM    4  C   UNL     1       5.571   6.649   0.000  1.00  0.00     0.054 A 
HETATM    5  C   UNL     1       6.870   4.399   0.000  1.00  0.00     0.130 A 
HETATM    6  C   UNL     1       6.870   5.899   0.000  1.00  0.00     0.096 A 
HETATM    7  O   UNL     1       5.571   2.150   0.000  1.00  0.00    -0.330 OA
HETATM    8  C   UNL     1       6.870   1.399   0.000  1.00  0.00     0.181 A 
HETATM    9  O   UNL     1       8.169   3.650   0.000  1.00  0.00    -0.325 OA
HETATM   10  C   UNL     1       8.169   2.150   0.000  1.00  0.00     0.181 A 
ENDROOT
BRANCH   2  11
HETATM   11  C   UNL     1       2.973   6.649   0.000  1.00  0.00     0.027 C 
BRANCH  11  12
HETATM   12  C   UNL     1       2.973   8.149   0.000  1.00  0.00     0.007 A 
HETATM   13  C   UNL     1       1.760   9.031   0.000  1.00  0.00     0.220 A 
HETATM   14  O   UNL     1       0.333   8.568   0.000  1.00  0.00    -0.164 OA
HETATM   15  O   UNL     1       2.223  10.458   0.000  1.00  0.00    -0.309 OA
HETATM   16  C   UNL     1       3.723  10.458   0.000  1.00  0.00     0.155 A 
HETATM   17  C   UNL     1       4.187   9.031   0.000  1.00  0.00     0.059 A 
ENDBRANCH  11  12
ENDBRANCH   2  11
BRANCH   6  18
HETATM   18  O   UNL     1       8.169   6.649   0.000  1.00  0.00    -0.330 OA
HETATM   19  C   UNL     1       9.468   5.899   0.000  1.00  0.00     0.181 C 
ENDBRANCH   6  18
TORSDOF 3
