REMARK  2 active torsions:
REMARK  status: ('A' for Active; 'I' for Inactive)
REMARK    1  A    between atoms: C_9  and  C_16 
REMARK    2  A    between atoms: C_13  and  C_16 
ROOT
HETATM    1  O   UNL     1      -0.023 -12.332   0.000  1.00  0.00    -0.304 OA
HETATM    2  O   UNL     1      -2.437 -12.585   0.000  1.00  0.00    -0.304 OA
HETATM    3  C   UNL     1      -0.023  -9.591   0.000  1.00  0.00     0.053 A 
HETATM    4  C   UNL     1      -0.633 -10.961   0.000  1.00  0.00     0.093 A 
HETATM    5  C   UNL     1      -0.905  -8.377   0.000  1.00  0.00     0.008 A 
HETATM    6  C   UNL     1      -2.125 -11.118   0.000  1.00  0.00     0.093 A 
HETATM    7  C   UNL     1      -2.397  -8.534   0.000  1.00  0.00     0.011 A 
HETATM    8  C   UNL     1      -3.007  -9.905   0.000  1.00  0.00     0.053 A 
HETATM    9  C   UNL     1      -1.138 -13.335   0.000  1.00  0.00     0.303 A 
ENDROOT
BRANCH   7  10
HETATM   10  C   UNL     1      -3.279  -7.321   0.000  1.00  0.00     0.027 C 
BRANCH  10  11
HETATM   11  C   UNL     1      -4.770  -7.478   0.000  1.00  0.00     0.007 A 
HETATM   12  C   UNL     1      -5.774  -6.363   0.000  1.00  0.00     0.220 A 
HETATM   13  O   UNL     1      -7.144  -6.973   0.000  1.00  0.00    -0.309 OA
HETATM   14  O   UNL     1      -5.462  -4.896   0.000  1.00  0.00    -0.164 OA
HETATM   15  C   UNL     1      -6.987  -8.465   0.000  1.00  0.00     0.155 A 
HETATM   16  C   UNL     1      -5.520  -8.777   0.000  1.00  0.00     0.059 A 
ENDBRANCH  10  11
ENDBRANCH   7  10
TORSDOF 2
