REMARK  8 active torsions:
REMARK  status: ('A' for Active; 'I' for Inactive)
REMARK    1  A    between atoms: C_3  and  C_5 
REMARK    2  A    between atoms: C_7  and  N_24 
REMARK    3  A    between atoms: C_8  and  O_25 
REMARK    4  A    between atoms: C_8  and  C_21 
REMARK    5  A    between atoms: C_11  and  C_12 
REMARK    6  A    between atoms: C_15  and  C_20 
REMARK    7  A    between atoms: C_18  and  C_21 
REMARK    8  A    between atoms: N_24  and  O_26 
ROOT
HETATM    1  N   UNL     1       4.778  -3.197   0.000  1.00  0.00     0.000 N 
HETATM    2  N   UNL     1       6.697  -5.220   0.000  1.00  0.00     0.000 N 
HETATM    3  C   UNL     1       6.748  -2.608   0.000  1.00  0.00    -0.052 A 
HETATM    4  C   UNL     1       5.449  -3.358   0.000  1.00  0.00     0.018 A 
HETATM    5  C   UNL     1       8.047  -3.358   0.000  1.00  0.00    -0.052 A 
HETATM    6  C   UNL     1       5.449  -4.858   0.000  1.00  0.00     0.004 A 
HETATM    7  C   UNL     1       8.047  -4.858   0.000  1.00  0.00     0.018 A 
HETATM    8  C   UNL     1       5.061  -3.409   0.000  1.00  0.00     0.004 A 
HETATM    9  C   UNL     1       5.811   0.488   0.000  1.00  0.00     0.000 A 
HETATM   10  C   UNL     1       5.061   1.787   0.000  1.00  0.00     0.000 A 
HETATM   11  C   UNL     1       5.061  -0.811   0.000  1.00  0.00     0.004 A 
HETATM   12  C   UNL     1       5.811  -2.110   0.000  1.00  0.00     0.018 A 
HETATM   13  C   UNL     1       6.748  -5.608   0.000  1.00  0.00     0.004 A 
HETATM   14  C   UNL     1       3.561   1.787   0.000  1.00  0.00     0.000 A 
HETATM   15  C   UNL     1       3.561  -0.811   0.000  1.00  0.00     0.001 A 
HETATM   16  C   UNL     1       3.561  -3.409   0.000  1.00  0.00     0.001 A 
HETATM   17  C   UNL     1       8.197  -5.220   0.000  1.00  0.00     0.008 A 
HETATM   18  C   UNL     1       8.947  -3.921   0.000  1.00  0.00     0.018 A 
HETATM   19  C   UNL     1       2.811   0.488   0.000  1.00  0.00     0.000 A 
HETATM   20  C   UNL     1       2.811  -2.110   0.000  1.00  0.00     0.000 A 
HETATM   21  C   UNL     1       4.311  -2.110   0.000  1.00  0.00     0.004 A 
HETATM   22  C   UNL     1       6.309  -6.668   0.000  1.00  0.00     0.000 A 
HETATM   23  C   UNL     1       5.042  -1.720   0.000  1.00  0.00     0.004 A 
HETATM   24  N   UNL     1       7.640  -4.655   0.000  1.00  0.00     0.000 N 
HETATM   25  O   UNL     1       6.349  -3.890   0.000  1.00  0.00     0.000 OA
HETATM   26  O   UNL     1       7.622  -6.155   0.000  1.00  0.00     0.000 OA
ENDROOT
TORSDOF 8
