REMARK  1 active torsions:
REMARK  status: ('A' for Active; 'I' for Inactive)
REMARK    1  A    between atoms: C_1  and  N_20 
ROOT
HETATM    1  C   UNL     1       6.223  -5.268   0.000  1.00  0.00     0.102 A 
HETATM    2  C   UNL     1       3.997   0.295   0.000  1.00  0.00     0.026 A 
HETATM    3  C   UNL     1       5.058  -0.921   0.000  1.00  0.00    -0.044 A 
HETATM    4  C   UNL     1       2.548  -0.094   0.000  1.00  0.00     0.026 A 
HETATM    5  C   UNL     1       2.548  -1.594   0.000  1.00  0.00    -0.044 A 
HETATM    6  C   UNL     1       6.507  -1.309   0.000  1.00  0.00     0.027 A 
HETATM    7  C   UNL     1       3.997  -1.982   0.000  1.00  0.00    -0.016 A 
HETATM    8  C   UNL     1       1.488  -2.654   0.000  1.00  0.00     0.027 A 
HETATM    9  C   UNL     1       6.895  -2.758   0.000  1.00  0.00     0.032 A 
HETATM   10  C   UNL     1       4.386  -3.431   0.000  1.00  0.00    -0.008 A 
HETATM   11  C   UNL     1       1.876  -4.103   0.000  1.00  0.00     0.030 A 
HETATM   12  C   UNL     1       5.834  -3.819   0.000  1.00  0.00    -0.003 A 
HETATM   13  C   UNL     1       3.325  -4.491   0.000  1.00  0.00    -0.026 A 
HETATM   14  C   UNL     1       5.162  -6.329   0.000  1.00  0.00    -0.007 A 
HETATM   15  C   UNL     1       5.550  -7.777   0.000  1.00  0.00     0.028 A 
HETATM   16  C   UNL     1       3.713  -5.940   0.000  1.00  0.00    -0.029 A 
HETATM   17  C   UNL     1       4.489  -8.838   0.000  1.00  0.00     0.005 A 
HETATM   18  C   UNL     1       2.652  -7.001   0.000  1.00  0.00     0.026 A 
HETATM   19  C   UNL     1       3.041  -8.450   0.000  1.00  0.00     0.005 A 
ENDROOT
BRANCH   1  20
HETATM   20  N   UNL     1       7.671  -5.656   0.000  1.00  0.00    -0.097 NA
HETATM   21  O   UNL     1       8.732  -4.595   0.000  1.00  0.00    -0.061 OA
ENDBRANCH   1  20
TORSDOF 1
