REMARK  2 active torsions:
REMARK  status: ('A' for Active; 'I' for Inactive)
REMARK    1  A    between atoms: N_1  and  C_21 
REMARK    2  A    between atoms: C_10  and  C_21 
ROOT
HETATM    1  N   UNL     1      -6.870   0.101   0.000  1.00  0.00    -0.256 N 
HETATM    2  C   UNL     1      -5.571   5.351   0.000  1.00  0.00     0.005 A 
HETATM    3  C   UNL     1      -4.272   4.601   0.000  1.00  0.00     0.007 A 
HETATM    4  C   UNL     1      -6.870   4.601   0.000  1.00  0.00     0.027 A 
HETATM    5  C   UNL     1      -6.870   3.100   0.000  1.00  0.00    -0.010 A 
HETATM    6  C   UNL     1      -4.272   3.100   0.000  1.00  0.00     0.047 A 
HETATM    7  C   UNL     1      -5.571   2.350   0.000  1.00  0.00     0.074 A 
HETATM    8  C   UNL     1      -8.169   2.350   0.000  1.00  0.00    -0.012 A 
HETATM    9  C   UNL     1      -8.169   0.851   0.000  1.00  0.00     0.051 A 
HETATM   10  C   UNL     1      -9.468   3.100   0.000  1.00  0.00     0.027 A 
HETATM   11  C   UNL     1      -9.468   0.101   0.000  1.00  0.00     0.045 A 
HETATM   12  C   UNL     1     -10.767   2.350   0.000  1.00  0.00     0.005 A 
HETATM   13  C   UNL     1     -10.767   0.851   0.000  1.00  0.00     0.007 A 
HETATM   14  N   UNL     1      -5.571   0.851   0.000  1.00  0.00    -0.174 NA
ENDROOT
BRANCH   1  15
HETATM   15  C   UNL     1      -6.870  -1.399   0.000  1.00  0.00     0.127 C 
BRANCH  15  16
HETATM   16  C   UNL     1      -5.571  -2.150   0.000  1.00  0.00     0.028 A 
HETATM   17  C   UNL     1      -4.272  -1.399   0.000  1.00  0.00     0.028 A 
HETATM   18  C   UNL     1      -2.973  -2.150   0.000  1.00  0.00     0.120 A 
HETATM   19  N   UNL     1      -2.973  -3.650   0.000  1.00  0.00    -0.296 NA
HETATM   20  C   UNL     1      -4.272  -4.399   0.000  1.00  0.00     0.120 A 
HETATM   21  C   UNL     1      -5.571  -3.650   0.000  1.00  0.00     0.028 A 
ENDBRANCH  15  16
ENDBRANCH   1  15
TORSDOF 2
