REMARK  1 active torsions:
REMARK  status: ('A' for Active; 'I' for Inactive)
REMARK    1  A    between atoms: C_2  and  AS_13 
ROOT
HETATM    1  C   UNL     1       1.574  -4.774   0.000  1.00  0.00    -0.031 A 
HETATM    2  C   UNL     1       0.275  -5.524   0.000  1.00  0.00    -0.030 A 
HETATM    3  C   UNL     1       2.873  -5.524   0.000  1.00  0.00     0.026 A 
HETATM    4  C   UNL     1      -1.024  -4.774   0.000  1.00  0.00     0.026 A 
HETATM    5  C   UNL     1      -2.324  -5.524   0.000  1.00  0.00     0.011 A 
HETATM    6  C   UNL     1       2.873  -7.024   0.000  1.00  0.00     0.009 A 
HETATM    7  C   UNL     1       0.275  -7.024   0.000  1.00  0.00    -0.017 A 
HETATM    8  C   UNL     1      -2.324  -7.024   0.000  1.00  0.00     0.041 A 
HETATM    9  C   UNL     1       1.574  -7.774   0.000  1.00  0.00     0.027 A 
HETATM   10  C   UNL     1      -1.024  -7.774   0.000  1.00  0.00     0.043 A 
HETATM   11  N   UNL     1      -1.024  -9.274   0.000  1.00  0.00    -0.105 NA
ENDROOT
BRANCH   1  12
HETATM   12 AS   UNL     1       1.574  -3.275   0.000  1.00  0.00     0.000 As
HETATM   13  O   UNL     1       3.074  -3.275   0.000  1.00  0.00     0.000 OA
HETATM   14  O   UNL     1       1.574  -1.774   0.000  1.00  0.00     0.000 OA
HETATM   15  O   UNL     1       0.074  -3.275   0.000  1.00  0.00     0.000 OA
ENDBRANCH   1  12
TORSDOF 1
