REMARK  2 active torsions:
REMARK  status: ('A' for Active; 'I' for Inactive)
REMARK    1  A    between atoms: N_2  and  S_12 
REMARK    2  A    between atoms: S_12  and  N_15 
ROOT
HETATM    1  O   UNL     1      -3.538  -3.498   0.000  1.00  0.00    -0.170 OA
HETATM    2  N   UNL     1      -1.648  -5.388   0.000  1.00  0.00    -0.174 N 
HETATM    3  O   UNL     1      -0.434  -7.769   0.000  1.00  0.00    -0.170 OA
HETATM    4  C   UNL     1      -3.075  -4.924   0.000  1.00  0.00     0.206 A 
HETATM    5  C   UNL     1      -3.956  -6.138   0.000  1.00  0.00     0.021 A 
HETATM    6  C   UNL     1      -5.448  -6.295   0.000  1.00  0.00     0.030 A 
HETATM    7  C   UNL     1      -6.058  -7.665   0.000  1.00  0.00     0.005 A 
HETATM    8  C   UNL     1      -3.075  -7.351   0.000  1.00  0.00     0.021 A 
HETATM    9  C   UNL     1      -5.176  -8.878   0.000  1.00  0.00     0.005 A 
HETATM   10  C   UNL     1      -1.648  -6.888   0.000  1.00  0.00     0.206 A 
HETATM   11  C   UNL     1      -3.685  -8.722   0.000  1.00  0.00     0.030 A 
ENDROOT
BRANCH   2  12
HETATM   12  S   UNL     1      -0.434  -4.506   0.000  1.00  0.00     0.333 S 
HETATM   13  O   UNL     1      -1.316  -3.292   0.000  1.00  0.00    -0.182 OA
HETATM   14  O   UNL     1       0.447  -5.720   0.000  1.00  0.00    -0.182 OA
BRANCH  12  15
HETATM   15  N   UNL     1       0.779  -3.624   0.000  1.00  0.00    -0.257 N 
HETATM   16  C   UNL     1       2.149  -4.234   0.000  1.00  0.00     0.140 C 
HETATM   17  C   UNL     1       0.622  -2.132   0.000  1.00  0.00     0.140 C 
ENDBRANCH  12  15
ENDBRANCH   2  12
TORSDOF 2
