REMARK  1 active torsions:
REMARK  status: ('A' for Active; 'I' for Inactive)
REMARK       I    between atoms: N_1  and  C_16 
REMARK    1  A    between atoms: C_16  and  C_18 
ROOT
HETATM    1  N   UNL     1       3.522   7.399   0.000  1.00  0.00    -0.304 N 
HETATM    2  N   UNL     1       3.522   4.399   0.000  1.00  0.00    -0.337 N 
HETATM    3  H   UNL     1       3.522   2.900   0.000  1.00  0.00     0.167 HD
HETATM    4  O   UNL     1       6.120   4.399   0.000  1.00  0.00    -0.174 OA
HETATM    5  C   UNL     1       0.924   7.399   0.000  1.00  0.00     0.066 A 
HETATM    6  C   UNL     1      -0.375   6.649   0.000  1.00  0.00    -0.045 A 
HETATM    7  C   UNL     1       2.223   6.649   0.000  1.00  0.00     0.055 A 
HETATM    8  C   UNL     1       2.223   5.149   0.000  1.00  0.00     0.051 A 
HETATM    9  C   UNL     1      -0.375   5.149   0.000  1.00  0.00    -0.045 A 
HETATM   10  C   UNL     1       0.924   4.399   0.000  1.00  0.00     0.066 A 
HETATM   11  C   UNL     1       4.821   6.649   0.000  1.00  0.00     0.180 A 
HETATM   12  C   UNL     1       4.821   5.149   0.000  1.00  0.00     0.191 A 
HETATM   13  C   UNL     1      -1.674   7.399   0.000  1.00  0.00     0.026 C 
HETATM   14  C   UNL     1      -1.674   4.399   0.000  1.00  0.00     0.026 C 
HETATM   15  C   UNL     1       3.522   8.899   0.000  1.00  0.00     0.188 C 
HETATM   16  O   UNL     1       2.223   9.649   0.000  1.00  0.00    -0.174 OA
ENDROOT
BRANCH  15  17
HETATM   17  C   UNL     1       4.821   9.649   0.000  1.00  0.00     0.167 C 
HETATM   18 CL   UNL     1       4.821  11.149   0.000  1.00  0.00    -0.105 Cl
ENDBRANCH  15  17
TORSDOF 1
