REMARK  2 active torsions:
REMARK  status: ('A' for Active; 'I' for Inactive)
REMARK       I    between atoms: N_1  and  C_13 
REMARK    1  A    between atoms: C_13  and  C_15 
REMARK    2  A    between atoms: C_15  and  N_16 
ROOT
HETATM    1  N   UNL     1      -1.574   6.274   0.000  1.00  0.00    -0.303 N 
HETATM    2  N   UNL     1      -1.574   3.275   0.000  1.00  0.00    -0.337 N 
HETATM    3  H   UNL     1      -1.574   1.774   0.000  1.00  0.00     0.167 HD
HETATM    4  O   UNL     1       1.024   3.275   0.000  1.00  0.00    -0.174 OA
HETATM    5  C   UNL     1      -4.172   6.274   0.000  1.00  0.00     0.045 A 
HETATM    6  C   UNL     1      -2.873   5.524   0.000  1.00  0.00     0.051 A 
HETATM    7  C   UNL     1      -5.471   5.524   0.000  1.00  0.00     0.007 A 
HETATM    8  C   UNL     1      -2.873   4.024   0.000  1.00  0.00     0.047 A 
HETATM    9  C   UNL     1      -5.471   4.024   0.000  1.00  0.00     0.007 A 
HETATM   10  C   UNL     1      -4.172   3.275   0.000  1.00  0.00     0.045 A 
HETATM   11  C   UNL     1      -0.275   5.524   0.000  1.00  0.00     0.180 A 
HETATM   12  C   UNL     1      -0.275   4.024   0.000  1.00  0.00     0.191 A 
HETATM   13  C   UNL     1      -1.574   7.774   0.000  1.00  0.00     0.194 C 
HETATM   14  O   UNL     1      -2.873   8.524   0.000  1.00  0.00    -0.174 OA
ENDROOT
BRANCH  13  15
HETATM   15  C   UNL     1      -0.275   8.524   0.000  1.00  0.00     0.171 C 
BRANCH  15  16
HETATM   16  N   UNL     1      -0.275  10.024   0.000  1.00  0.00    -0.362 N 
HETATM   17  C   UNL     1      -1.574  10.774   0.000  1.00  0.00     0.097 A 
HETATM   18  C   UNL     1      -1.574  12.274   0.000  1.00  0.00     0.024 A 
HETATM   19  C   UNL     1      -0.275  13.024   0.000  1.00  0.00     0.004 A 
HETATM   20  C   UNL     1       1.024  12.274   0.000  1.00  0.00     0.022 A 
HETATM   21  C   UNL     1       1.024  10.774   0.000  1.00  0.00     0.097 A 
HETATM   22  C   UNL     1       2.324  13.024   0.000  1.00  0.00     0.002 C 
ENDBRANCH  15  16
ENDBRANCH  13  15
TORSDOF 2
