REMARK  3 active torsions:
REMARK  status: ('A' for Active; 'I' for Inactive)
REMARK    1  A    between atoms: N_2  and  N_3 
REMARK    2  A    between atoms: N_2  and  C_7 
REMARK    3  A    between atoms: N_3  and  C_8 
ROOT
HETATM    1  C   UNL     1      -3.785  -4.551   0.000  1.00  0.00     0.119 A 
HETATM    2  C   UNL     1      -5.084  -5.301   0.000  1.00  0.00    -0.009 A 
HETATM    3  C   UNL     1      -2.486  -5.301   0.000  1.00  0.00     0.128 A 
HETATM    4  C   UNL     1      -6.383  -4.551   0.000  1.00  0.00     0.027 A 
HETATM    5  C   UNL     1      -7.682  -5.301   0.000  1.00  0.00     0.005 A 
HETATM    6  C   UNL     1      -2.486  -6.801   0.000  1.00  0.00     0.060 A 
HETATM    7  C   UNL     1      -5.084  -6.801   0.000  1.00  0.00    -0.046 A 
HETATM    8  C   UNL     1      -7.682  -6.801   0.000  1.00  0.00     0.005 A 
HETATM    9  C   UNL     1      -3.785  -7.551   0.000  1.00  0.00     0.029 A 
HETATM   10  C   UNL     1      -6.383  -7.551   0.000  1.00  0.00     0.022 A 
HETATM   11  O   UNL     1      -1.187  -4.551   0.000  1.00  0.00    -0.193 OA
ENDROOT
BRANCH   1  12
HETATM   12  N   UNL     1      -3.785  -3.051   0.000  1.00  0.00    -0.145 NA
BRANCH  12  13
HETATM   13  N   UNL     1      -2.486  -2.301   0.000  1.00  0.00    -0.122 NA
BRANCH  13  14
HETATM   14  C   UNL     1      -2.486   0.174   0.000  1.00  0.00     0.206 A 
HETATM   15  N   UNL     1      -3.700   1.055   0.000  1.00  0.00    -0.245 NA
HETATM   16  C   UNL     1      -3.236   2.482   0.000  1.00  0.00     0.140 A 
HETATM   17  C   UNL     1      -1.736   2.482   0.000  1.00  0.00     0.091 A 
HETATM   18  S   UNL     1      -1.272   1.055   0.000  1.00  0.00    -0.072 SA
ENDBRANCH  13  14
ENDBRANCH  12  13
ENDBRANCH   1  12
TORSDOF 3
