REMARK  4 active torsions:
REMARK  status: ('A' for Active; 'I' for Inactive)
REMARK    1  A    between atoms: O_1  and  O_2 
REMARK    2  A    between atoms: C_4  and  O_25 
REMARK    3  A    between atoms: C_13  and  O_20 
REMARK    4  A    between atoms: C_16  and  C_18 
ROOT
HETATM    1  O   UNL     1       4.647   6.750   0.000  1.00  0.00     0.000 OA
HETATM    2  O   UNL     1       5.946   7.500   0.000  1.00  0.00     0.000 OA
HETATM    3  O   UNL     1       9.843   2.250   0.000  1.00  0.00    -0.333 OA
HETATM    4  C   UNL     1       8.544   7.500   0.000  1.00  0.00     0.070 A 
HETATM    5  C   UNL     1       7.245   6.750   0.000  1.00  0.00     0.060 A 
HETATM    6  C   UNL     1       9.843   6.750   0.000  1.00  0.00    -0.011 A 
HETATM    7  C   UNL     1       9.843   5.250   0.000  1.00  0.00    -0.037 A 
HETATM    8  C   UNL     1       7.245   5.250   0.000  1.00  0.00    -0.056 A 
HETATM    9  C   UNL     1       8.544   4.500   0.000  1.00  0.00     0.052 A 
HETATM   10  C   UNL     1      11.142   4.500   0.000  1.00  0.00     0.087 A 
HETATM   11  C   UNL     1       5.946   4.500   0.000  1.00  0.00     0.015 A 
HETATM   12  C   UNL     1       4.647   5.250   0.000  1.00  0.00     0.031 A 
HETATM   13  C   UNL     1       3.348   4.500   0.000  1.00  0.00     0.116 A 
HETATM   14  C   UNL     1      11.142   3.000   0.000  1.00  0.00     0.273 A 
HETATM   15  C   UNL     1       8.544   3.000   0.000  1.00  0.00     0.102 A 
HETATM   16  C   UNL     1       5.946   3.000   0.000  1.00  0.00     0.008 A 
HETATM   17  C   UNL     1       3.348   3.000   0.000  1.00  0.00     0.030 A 
HETATM   18  C   UNL     1       7.245   2.250   0.000  1.00  0.00     0.029 A 
HETATM   19  C   UNL     1       4.647   2.250   0.000  1.00  0.00     0.003 A 
HETATM   20  C   UNL     1       4.647   0.750   0.000  1.00  0.00     0.000 C 
HETATM   21  C   UNL     1       5.946   6.000   0.000  1.00  0.00     0.015 A 
HETATM   22  C   UNL     1       7.245   3.750   0.000  1.00  0.00     0.034 A 
HETATM   23  C   UNL     1      11.142   7.500   0.000  1.00  0.00     0.032 C 
HETATM   24  O   UNL     1      12.441   2.250   0.000  1.00  0.00    -0.190 OA
ENDROOT
BRANCH   4  25
HETATM   25  O   UNL     1       8.544   9.000   0.000  1.00  0.00    -0.332 OA
HETATM   26  C   UNL     1       7.245   9.750   0.000  1.00  0.00     0.181 C 
ENDBRANCH   4  25
BRANCH  13  27
HETATM   27  O   UNL     1       2.049   5.250   0.000  1.00  0.00    -0.354 OA
HETATM   28  C   UNL     1       0.750   4.500   0.000  1.00  0.00     0.174 C 
ENDBRANCH  13  27
TORSDOF 4
