REMARK  4 active torsions:
REMARK  status: ('A' for Active; 'I' for Inactive)
REMARK    1  A    between atoms: C_1  and  N_8 
REMARK    2  A    between atoms: C_6  and  N_8 
REMARK    3  A    between atoms: C_6  and  N_9 
REMARK    4  A    between atoms: N_9  and  C_10 
ROOT
HETATM    1  C   UNL     1       5.705  -1.562   0.000  1.00  0.00     0.222 C 
HETATM    2  S   UNL     1       6.455  -0.263   0.000  1.00  0.00    -0.037 SA
ENDROOT
BRANCH   1   3
HETATM    3  N   UNL     1       4.205  -1.562   0.000  1.00  0.00    -0.193 NA
BRANCH   3   4
HETATM    4  C   UNL     1       3.455  -0.263   0.000  1.00  0.00     0.188 A 
HETATM    5  N   UNL     1       4.066   1.107   0.000  1.00  0.00    -0.247 NA
HETATM    6  C   UNL     1       2.951   2.111   0.000  1.00  0.00     0.140 A 
HETATM    7  C   UNL     1       1.652   1.361   0.000  1.00  0.00     0.091 A 
HETATM    8  S   UNL     1       1.964  -0.106   0.000  1.00  0.00    -0.074 SA
ENDBRANCH   3   4
ENDBRANCH   1   3
BRANCH   1   9
HETATM    9  N   UNL     1       6.455  -2.861   0.000  1.00  0.00    -0.226 NA
BRANCH   9  10
HETATM   10  C   UNL     1       7.955  -2.861   0.000  1.00  0.00     0.039 A 
HETATM   11  C   UNL     1       8.706  -1.562   0.000  1.00  0.00     0.041 A 
HETATM   12  C   UNL     1      10.206  -1.562   0.000  1.00  0.00     0.006 A 
HETATM   13  C   UNL     1      10.956  -2.861   0.000  1.00  0.00     0.001 A 
HETATM   14  C   UNL     1      10.206  -4.160   0.000  1.00  0.00     0.006 A 
HETATM   15  C   UNL     1       8.706  -4.160   0.000  1.00  0.00     0.041 A 
ENDBRANCH   9  10
ENDBRANCH   1   9
TORSDOF 4
