REMARK  4 active torsions:
REMARK  status: ('A' for Active; 'I' for Inactive)
REMARK    1  A    between atoms: C_5  and  C_8 
REMARK    2  A    between atoms: C_6  and  N_17 
REMARK    3  A    between atoms: C_8  and  C_13 
REMARK    4  A    between atoms: C_9  and  C_10 
REMARK       I    between atoms: C_9  and  N_17 
ROOT
HETATM    1  C   UNL     1      -8.869  -0.245   0.000  1.00  0.00     0.051 A 
HETATM    2  C   UNL     1      -8.869  -1.745   0.000  1.00  0.00     0.040 A 
HETATM    3  C   UNL     1      -7.570  -2.495   0.000  1.00  0.00     0.018 A 
HETATM    4  C   UNL     1      -6.271  -1.745   0.000  1.00  0.00     0.063 A 
HETATM    5  C   UNL     1      -6.271  -0.245   0.000  1.00  0.00     0.023 A 
HETATM    6  C   UNL     1      -7.570   0.505   0.000  1.00  0.00     0.060 A 
HETATM    7 CL   UNL     1      -7.570  -3.995   0.000  1.00  0.00    -0.091 Cl
ENDROOT
BRANCH   5   8
HETATM    8  C   UNL     1      -4.972   0.505   0.000  1.00  0.00     0.141 C 
HETATM    9  O   UNL     1      -4.972   2.005   0.000  1.00  0.00    -0.189 OA
BRANCH   8  10
HETATM   10  C   UNL     1      -3.673  -0.245   0.000  1.00  0.00     0.079 A 
HETATM   11  C   UNL     1      -3.516  -1.737   0.000  1.00  0.00     0.050 A 
HETATM   12  C   UNL     1      -2.049  -2.049   0.000  1.00  0.00     0.033 A 
HETATM   13  C   UNL     1      -1.299  -0.750   0.000  1.00  0.00     0.126 A 
HETATM   14  N   UNL     1      -2.303   0.365   0.000  1.00  0.00    -0.273 NA
ENDBRANCH   8  10
ENDBRANCH   5   8
BRANCH   6  15
HETATM   15  N   UNL     1      -7.570   2.005   0.000  1.00  0.00    -0.227 NA
HETATM   16  C   UNL     1      -8.869   2.755   0.000  1.00  0.00     0.229 C 
HETATM   17  O   UNL     1      -8.869   4.255   0.000  1.00  0.00    -0.172 OA
BRANCH  16  18
HETATM   18  C   UNL     1     -10.168   2.005   0.000  1.00  0.00     0.412 C 
HETATM   19  N   UNL     1     -11.467   2.755   0.000  1.00  0.00     0.628 N 
ENDBRANCH  16  18
ENDBRANCH   6  15
TORSDOF 4
