REMARK  3 active torsions:
REMARK  status: ('A' for Active; 'I' for Inactive)
REMARK       I    between atoms: N_2  and  C_14 
REMARK    1  A    between atoms: C_14  and  C_16 
REMARK    2  A    between atoms: C_16  and  C_17 
REMARK    3  A    between atoms: C_17  and  C_18 
ROOT
HETATM    1  N   UNL     1       4.647   0.750   0.000  1.00  0.00    -0.254 NA
HETATM    2  N   UNL     1       8.254   2.250   0.000  1.00  0.00    -0.322 N 
HETATM    3  C   UNL     1       7.373   3.463   0.000  1.00  0.00     0.128 A 
HETATM    4  C   UNL     1       5.946   3.000   0.000  1.00  0.00    -0.003 A 
HETATM    5  C   UNL     1       4.647   3.750   0.000  1.00  0.00     0.048 A 
HETATM    6  C   UNL     1       3.348   3.000   0.000  1.00  0.00    -0.026 A 
HETATM    7  C   UNL     1       2.049   3.750   0.000  1.00  0.00     0.024 A 
HETATM    8  C   UNL     1       0.750   3.000   0.000  1.00  0.00     0.005 A 
HETATM    9  C   UNL     1       5.946   1.500   0.000  1.00  0.00     0.075 A 
HETATM   10  C   UNL     1       3.348   1.500   0.000  1.00  0.00     0.051 A 
HETATM   11  C   UNL     1       0.750   1.500   0.000  1.00  0.00     0.007 A 
HETATM   12  C   UNL     1       7.373   1.036   0.000  1.00  0.00     0.149 A 
HETATM   13  C   UNL     1       2.049   0.750   0.000  1.00  0.00     0.045 A 
HETATM   14  C   UNL     1       9.754   2.250   0.000  1.00  0.00     0.168 C 
HETATM   15  O   UNL     1      10.504   0.951   0.000  1.00  0.00    -0.176 OA
ENDROOT
BRANCH  14  16
HETATM   16  C   UNL     1      10.504   3.549   0.000  1.00  0.00     0.084 C 
BRANCH  16  17
HETATM   17  C   UNL     1      12.004   3.549   0.000  1.00  0.00     0.106 C 
BRANCH  17  18
HETATM   18  C   UNL     1      12.754   4.848   0.000  1.00  0.00     0.186 C 
HETATM   19  O   UNL     1      14.254   4.848   0.000  1.00  0.00    -0.647 OA
HETATM   20  O   UNL     1      12.004   6.147   0.000  1.00  0.00    -0.647 OA
ENDBRANCH  17  18
ENDBRANCH  16  17
ENDBRANCH  14  16
TORSDOF 3
