REMARK  3 active torsions:
REMARK  status: ('A' for Active; 'I' for Inactive)
REMARK    1  A    between atoms: C_13  and  C_21 
REMARK    2  A    between atoms: C_14  and  N_22 
REMARK    3  A    between atoms: C_17  and  C_21 
REMARK       I    between atoms: N_22  and  C_23 
ROOT
HETATM    1  O   UNL     1     -10.980 -10.319   0.000  1.00  0.00    -0.150 OA
HETATM    2  N   UNL     1      -9.681  -8.069   0.000  1.00  0.00    -0.268 N 
HETATM    3  O   UNL     1      -8.382  -5.819   0.000  1.00  0.00    -0.169 OA
HETATM    4  N   UNL     1      -8.382 -10.319   0.000  1.00  0.00    -0.275 N 
HETATM    5  N   UNL     1      -5.656  -7.605   0.000  1.00  0.00    -0.337 N 
HETATM    6  H   UNL     1      -5.193  -6.179   0.000  1.00  0.00     0.167 HD
HETATM    7  N   UNL     1      -5.656 -10.032   0.000  1.00  0.00    -0.214 NA
HETATM    8  C   UNL     1      -8.382  -7.319   0.000  1.00  0.00     0.216 A 
HETATM    9  C   UNL     1      -7.083  -8.069   0.000  1.00  0.00     0.135 A 
HETATM   10  C   UNL     1      -7.083  -9.569   0.000  1.00  0.00     0.167 A 
HETATM   11  C   UNL     1      -4.774  -8.819   0.000  1.00  0.00     0.119 A 
HETATM   12  C   UNL     1      -9.681  -9.569   0.000  1.00  0.00     0.266 A 
HETATM   13  C   UNL     1     -10.980  -7.319   0.000  1.00  0.00     0.136 C 
HETATM   14  C   UNL     1      -8.382 -11.819   0.000  1.00  0.00     0.136 C 
ENDROOT
BRANCH  11  15
HETATM   15  C   UNL     1      -3.275  -8.819   0.000  1.00  0.00     0.064 C 
BRANCH  15  16
HETATM   16  C   UNL     1      -2.525  -7.520   0.000  1.00  0.00     0.008 A 
HETATM   17  C   UNL     1      -3.275  -6.221   0.000  1.00  0.00     0.006 A 
HETATM   18  C   UNL     1      -2.525  -4.922   0.000  1.00  0.00     0.041 A 
HETATM   19  C   UNL     1      -1.024  -4.922   0.000  1.00  0.00     0.039 A 
HETATM   20  C   UNL     1      -0.275  -6.221   0.000  1.00  0.00     0.041 A 
HETATM   21  C   UNL     1      -1.024  -7.520   0.000  1.00  0.00     0.006 A 
BRANCH  19  22
HETATM   22  N   UNL     1      -0.275  -3.623   0.000  1.00  0.00    -0.232 NA
HETATM   23  C   UNL     1      -1.024  -2.324   0.000  1.00  0.00     0.189 C 
HETATM   24  O   UNL     1      -0.275  -1.024   0.000  1.00  0.00    -0.174 OA
HETATM   25  C   UNL     1      -2.525  -2.324   0.000  1.00  0.00     0.083 C 
ENDBRANCH  19  22
ENDBRANCH  15  16
ENDBRANCH  11  15
TORSDOF 3
