REMARK  0 active torsions:
REMARK  status: ('A' for Active; 'I' for Inactive)
ROOT
HETATM    1  O   UNL     1      -7.778  -2.049   0.000  1.00  0.00    -0.195 OA
HETATM    2  O   UNL     1      -4.198  -7.263   0.000  1.00  0.00     0.000 OA
HETATM    3  O   UNL     1      -1.979  -1.299   0.000  1.00  0.00    -0.326 OA
HETATM    4  C   UNL     1      -4.028  -0.750   0.000  1.00  0.00     0.042 A 
HETATM    5  C   UNL     1      -3.278  -2.049   0.000  1.00  0.00     0.173 A 
HETATM    6  C   UNL     1      -5.528  -0.750   0.000  1.00  0.00     0.057 A 
HETATM    7  C   UNL     1      -6.278  -2.049   0.000  1.00  0.00     0.107 A 
HETATM    8  C   UNL     1      -1.979  -2.799   0.000  1.00  0.00     0.264 A 
HETATM    9  C   UNL     1      -4.028  -3.348   0.000  1.00  0.00     0.143 A 
HETATM   10  C   UNL     1      -5.528  -3.348   0.000  1.00  0.00     0.026 A 
HETATM   11  C   UNL     1      -4.458  -5.785   0.000  1.00  0.00     0.032 A 
HETATM   12  C   UNL     1      -3.049  -6.298   0.000  1.00  0.00     0.003 A 
HETATM   13  O   UNL     1      -6.278  -4.647   0.000  1.00  0.00     0.000 OA
HETATM   14  C   UNL     1      -7.778  -4.647   0.000  1.00  0.00     0.000 C 
HETATM   15  C   UNL     1      -5.958  -5.785   0.000  1.00  0.00     0.003 A 
HETATM   16  O   UNL     1      -2.619  -3.861   0.000  1.00  0.00    -0.327 OA
HETATM   17  C   UNL     1      -2.299  -7.598   0.000  1.00  0.00     0.000 A 
HETATM   18  C   UNL     1      -3.049  -8.897   0.000  1.00  0.00     0.000 A 
HETATM   19  C   UNL     1      -4.549  -8.897   0.000  1.00  0.00     0.000 A 
HETATM   20  C   UNL     1      -5.299  -7.598   0.000  1.00  0.00     0.000 A 
HETATM   21  C   UNL     1      -5.299 -10.196   0.000  1.00  0.00     0.000 C 
ENDROOT
TORSDOF 0
