REMARK  3 active torsions:
REMARK  status: ('A' for Active; 'I' for Inactive)
REMARK    1  A    between atoms: C_4  and  N_15 
REMARK    2  A    between atoms: C_6  and  S_13 
REMARK    3  A    between atoms: C_12  and  N_18 
REMARK       I    between atoms: N_15  and  C_16 
REMARK       I    between atoms: C_16  and  N_18 
ROOT
HETATM    1  N   UNL     1       3.623  -4.774   0.000  1.00  0.00    -0.212 NA
HETATM    2  C   UNL     1       4.922  -5.524   0.000  1.00  0.00     0.301 C 
HETATM    3  O   UNL     1       6.221  -4.774   0.000  1.00  0.00    -0.147 OA
HETATM    4  N   UNL     1       4.922  -7.024   0.000  1.00  0.00    -0.189 NA
ENDROOT
BRANCH   1   5
HETATM    5  C   UNL     1       3.623  -3.275   0.000  1.00  0.00     0.041 A 
HETATM    6  C   UNL     1       4.922  -2.525   0.000  1.00  0.00     0.042 A 
HETATM    7  C   UNL     1       4.922  -1.024   0.000  1.00  0.00     0.017 A 
HETATM    8  C   UNL     1       3.623  -0.275   0.000  1.00  0.00     0.048 A 
HETATM    9  C   UNL     1       2.324  -1.024   0.000  1.00  0.00     0.017 A 
HETATM   10  C   UNL     1       2.324  -2.525   0.000  1.00  0.00     0.042 A 
BRANCH   8  11
HETATM   11  S   UNL     1       3.623   1.226   0.000  1.00  0.00    -0.140 SA
HETATM   12  C   UNL     1       4.922   1.976   0.000  1.00  0.00     0.069 C 
ENDBRANCH   8  11
ENDBRANCH   1   5
BRANCH   4  13
HETATM   13  C   UNL     1       6.221  -7.774   0.000  1.00  0.00     0.138 A 
HETATM   14  N   UNL     1       7.520  -7.024   0.000  1.00  0.00    -0.257 NA
HETATM   15  C   UNL     1       8.819  -7.774   0.000  1.00  0.00     0.127 A 
HETATM   16  C   UNL     1       8.819  -9.274   0.000  1.00  0.00     0.027 A 
HETATM   17  C   UNL     1       7.520 -10.024   0.000  1.00  0.00     0.009 A 
HETATM   18  C   UNL     1       6.221  -9.274   0.000  1.00  0.00     0.066 A 
HETATM   19  C   UNL     1       7.520 -11.524   0.000  1.00  0.00     0.001 C 
ENDBRANCH   4  13
TORSDOF 3
