REMARK  2 active torsions:
REMARK  status: ('A' for Active; 'I' for Inactive)
REMARK    1  A    between atoms: C_5  and  N_18 
REMARK    2  A    between atoms: C_10  and  N_15 
REMARK       I    between atoms: N_15  and  C_16 
REMARK       I    between atoms: C_16  and  N_18 
ROOT
HETATM    1  S   UNL     1      -2.049  12.000   0.000  1.00  0.00    -0.111 SA
HETATM    2  C   UNL     1      -3.348   8.250   0.000  1.00  0.00     0.093 A 
HETATM    3  C   UNL     1      -3.348   9.750   0.000  1.00  0.00     0.082 A 
HETATM    4  C   UNL     1      -2.049   7.500   0.000  1.00  0.00     0.047 A 
HETATM    5  C   UNL     1      -2.049  10.500   0.000  1.00  0.00     0.022 A 
HETATM    6  C   UNL     1      -0.750   8.250   0.000  1.00  0.00     0.047 A 
HETATM    7  C   UNL     1      -0.750   9.750   0.000  1.00  0.00     0.040 A 
HETATM    8  C   UNL     1      -3.348  12.750   0.000  1.00  0.00     0.127 A 
HETATM    9  C   UNL     1      -4.647  12.000   0.000  1.00  0.00     0.284 A 
HETATM   10  O   UNL     1      -4.647  10.500   0.000  1.00  0.00    -0.307 OA
HETATM   11  O   UNL     1      -5.946  12.750   0.000  1.00  0.00    -0.189 OA
ENDROOT
BRANCH   4  12
HETATM   12  N   UNL     1      -2.049   6.000   0.000  1.00  0.00    -0.212 NA
HETATM   13  C   UNL     1      -3.348   5.250   0.000  1.00  0.00     0.300 C 
HETATM   14  N   UNL     1      -3.348   3.750   0.000  1.00  0.00    -0.206 NA
HETATM   15  O   UNL     1      -4.647   6.000   0.000  1.00  0.00    -0.147 OA
BRANCH  14  16
HETATM   16  C   UNL     1      -4.647   3.000   0.000  1.00  0.00     0.086 A 
HETATM   17  C   UNL     1      -5.946   3.750   0.000  1.00  0.00     0.048 A 
HETATM   18  C   UNL     1      -7.245   3.000   0.000  1.00  0.00     0.007 A 
HETATM   19  C   UNL     1      -7.245   1.500   0.000  1.00  0.00     0.007 A 
HETATM   20  C   UNL     1      -5.946   0.750   0.000  1.00  0.00     0.058 A 
HETATM   21  C   UNL     1      -4.647   1.500   0.000  1.00  0.00     0.131 A 
HETATM   22  F   UNL     1      -3.348   0.750   0.000  1.00  0.00    -0.208 F 
ENDBRANCH  14  16
ENDBRANCH   4  12
TORSDOF 2
