REMARK  4 active torsions:
REMARK  status: ('A' for Active; 'I' for Inactive)
REMARK    1  A    between atoms: N_1  and  C_11 
REMARK    2  A    between atoms: C_18  and  C_20 
REMARK    3  A    between atoms: C_21  and  N_23 
REMARK    4  A    between atoms: N_23  and  C_24 
ROOT
HETATM    1  N   UNL     1      -8.948   6.686   0.000  1.00  0.00    -0.334 N 
HETATM    2  C   UNL     1     -11.674   6.973   0.000  1.00  0.00     0.043 A 
HETATM    3  C   UNL     1     -12.973   6.223   0.000  1.00  0.00     0.007 A 
HETATM    4  C   UNL     1     -10.375   6.223   0.000  1.00  0.00     0.033 A 
HETATM    5  C   UNL     1     -10.375   4.723   0.000  1.00  0.00    -0.010 A 
HETATM    6  C   UNL     1     -12.973   4.723   0.000  1.00  0.00     0.005 A 
HETATM    7  C   UNL     1     -11.674   3.973   0.000  1.00  0.00     0.027 A 
HETATM    8  C   UNL     1      -8.948   4.259   0.000  1.00  0.00     0.034 A 
HETATM    9  C   UNL     1      -8.066   5.473   0.000  1.00  0.00     0.135 A 
ENDROOT
BRANCH   8  10
HETATM   10  C   UNL     1      -8.485   2.833   0.000  1.00  0.00     0.181 A 
HETATM   11  N   UNL     1      -9.488   1.718   0.000  1.00  0.00    -0.197 NA
HETATM   12  C   UNL     1      -9.025   0.291   0.000  1.00  0.00     0.243 A 
HETATM   13 CL   UNL     1     -10.028  -0.823   0.000  1.00  0.00    -0.041 Cl
HETATM   14  N   UNL     1      -7.558  -0.020   0.000  1.00  0.00    -0.029 NA
HETATM   15  C   UNL     1      -6.554   1.094   0.000  1.00  0.00     0.749 A 
HETATM   16  N   UNL     1      -7.017   2.521   0.000  1.00  0.00    -0.041 NA
BRANCH  15  17
HETATM   17  N   UNL     1      -5.087   0.782   0.000  1.00  0.00    -0.086 NA
BRANCH  17  18
HETATM   18  C   UNL     1      -4.623  -0.644   0.000  1.00  0.00     0.145 C 
HETATM   19  C   UNL     1      -3.156  -0.956   0.000  1.00  0.00     0.029 C 
ENDBRANCH  17  18
ENDBRANCH  15  17
ENDBRANCH   8  10
BRANCH   1  20
HETATM   20  C   UNL     1      -8.485   8.113   0.000  1.00  0.00     0.015 A 
HETATM   21  C   UNL     1      -7.017   8.425   0.000  1.00  0.00     0.039 A 
HETATM   22  C   UNL     1      -6.554   9.851   0.000  1.00  0.00     0.006 A 
HETATM   23  C   UNL     1      -7.558  10.966   0.000  1.00  0.00     0.001 A 
HETATM   24  C   UNL     1      -9.025  10.654   0.000  1.00  0.00     0.006 A 
HETATM   25  C   UNL     1      -9.488   9.228   0.000  1.00  0.00     0.039 A 
ENDBRANCH   1  20
TORSDOF 4
