REMARK  1 active torsions:
REMARK  status: ('A' for Active; 'I' for Inactive)
REMARK    1  A    between atoms: C_11  and  C_15 
ROOT
HETATM    1  O   UNL     1       0.750   2.250   0.000  1.00  0.00    -0.150 OA
HETATM    2  N   UNL     1       2.049   4.500   0.000  1.00  0.00    -0.268 N 
HETATM    3  O   UNL     1       3.348   6.750   0.000  1.00  0.00    -0.169 OA
HETATM    4  N   UNL     1       3.348   2.250   0.000  1.00  0.00    -0.275 N 
HETATM    5  N   UNL     1       6.074   4.963   0.000  1.00  0.00    -0.334 N 
HETATM    6  H   UNL     1       6.537   6.390   0.000  1.00  0.00     0.168 HD
HETATM    7  N   UNL     1       6.074   2.537   0.000  1.00  0.00    -0.210 NA
HETATM    8  C   UNL     1       3.348   5.250   0.000  1.00  0.00     0.216 A 
HETATM    9  C   UNL     1       4.647   4.500   0.000  1.00  0.00     0.135 A 
HETATM   10  C   UNL     1       4.647   3.000   0.000  1.00  0.00     0.167 A 
HETATM   11  C   UNL     1       6.955   3.750   0.000  1.00  0.00     0.134 A 
HETATM   12  C   UNL     1       2.049   3.000   0.000  1.00  0.00     0.266 A 
HETATM   13  C   UNL     1       0.750   5.250   0.000  1.00  0.00     0.136 C 
HETATM   14  C   UNL     1       3.348   0.750   0.000  1.00  0.00     0.136 C 
ENDROOT
BRANCH  11  15
HETATM   15  C   UNL     1       8.455   3.750   0.000  1.00  0.00    -0.010 C 
HETATM   16  C   UNL     1       9.205   2.451   0.000  1.00  0.00     0.029 C 
HETATM   17  C   UNL     1       9.205   5.049   0.000  1.00  0.00     0.029 C 
ENDBRANCH  11  15
TORSDOF 1
