REMARK  3 active torsions:
REMARK  status: ('A' for Active; 'I' for Inactive)
REMARK       I    between atoms: N_1  and  C_26 
REMARK    1  A    between atoms: C_2  and  O_24 
REMARK    2  A    between atoms: C_26  and  O_28 
REMARK    3  A    between atoms: O_28  and  C_29 
ROOT
HETATM    1  N   UNL     1      10.767  -0.851   0.000  1.00  0.00    -0.290 N 
HETATM    2  C   UNL     1       9.468   4.399   0.000  1.00  0.00     0.098 A 
HETATM    3  C   UNL     1       8.169   3.650   0.000  1.00  0.00     0.113 A 
HETATM    4  C   UNL     1      10.767   3.650   0.000  1.00  0.00     0.075 A 
HETATM    5  C   UNL     1      10.767   2.150   0.000  1.00  0.00    -0.035 A 
HETATM    6  C   UNL     1       8.169   2.150   0.000  1.00  0.00     0.024 A 
HETATM    7  C   UNL     1      12.066   1.399   0.000  1.00  0.00     0.047 A 
HETATM    8  C   UNL     1       9.468   1.399   0.000  1.00  0.00     0.007 A 
HETATM    9  C   UNL     1       6.870   1.399   0.000  1.00  0.00    -0.005 A 
HETATM   10  C   UNL     1       5.571   2.150   0.000  1.00  0.00     0.031 A 
HETATM   11  C   UNL     1       4.272   1.399   0.000  1.00  0.00     0.111 A 
HETATM   12  C   UNL     1      12.066  -0.101   0.000  1.00  0.00     0.114 A 
HETATM   13  C   UNL     1       9.468  -0.101   0.000  1.00  0.00     0.044 A 
HETATM   14  C   UNL     1       6.870  -0.101   0.000  1.00  0.00    -0.032 A 
HETATM   15  C   UNL     1       4.272  -0.101   0.000  1.00  0.00     0.098 A 
HETATM   16  C   UNL     1       8.169  -0.851   0.000  1.00  0.00     0.066 A 
HETATM   17  C   UNL     1       5.571  -0.851   0.000  1.00  0.00     0.075 A 
HETATM   18  O   UNL     1       2.973   2.150   0.000  1.00  0.00    -0.327 OA
HETATM   19  C   UNL     1       1.674   1.399   0.000  1.00  0.00     0.181 A 
HETATM   20  O   UNL     1       2.973  -0.851   0.000  1.00  0.00    -0.330 OA
HETATM   21  C   UNL     1       1.674  -0.101   0.000  1.00  0.00     0.181 A 
HETATM   22  O   UNL     1       6.870   4.399   0.000  1.00  0.00    -0.324 OA
HETATM   23  C   UNL     1       5.571   3.650   0.000  1.00  0.00     0.177 A 
HETATM   24  C   UNL     1      10.767  -2.350   0.000  1.00  0.00     0.300 C 
HETATM   25  O   UNL     1       9.468  -3.100   0.000  1.00  0.00    -0.143 OA
ENDROOT
BRANCH  24  26
HETATM   26  O   UNL     1      12.066  -3.100   0.000  1.00  0.00    -0.296 OA
BRANCH  26  27
HETATM   27  C   UNL     1      13.365  -2.350   0.000  1.00  0.00     0.153 C 
HETATM   28  C   UNL     1      14.664  -3.100   0.000  1.00  0.00     0.035 C 
ENDBRANCH  26  27
ENDBRANCH  24  26
BRANCH   2  29
HETATM   29  O   UNL     1       9.468   5.899   0.000  1.00  0.00    -0.330 OA
HETATM   30  C   UNL     1       8.169   6.649   0.000  1.00  0.00     0.181 C 
ENDBRANCH   2  29
TORSDOF 3
