REMARK  4 active torsions:
REMARK  status: ('A' for Active; 'I' for Inactive)
REMARK    1  A    between atoms: C_3  and  N_14 
REMARK    2  A    between atoms: C_12  and  N_17 
REMARK    3  A    between atoms: N_14  and  C_15 
REMARK    4  A    between atoms: C_15  and  N_17 
ROOT
HETATM    1  C   UNL     1       0.375   6.649   0.000  1.00  0.00     0.222 C 
HETATM    2  S   UNL     1      -0.924   7.399   0.000  1.00  0.00    -0.037 SA
ENDROOT
BRANCH   1   3
HETATM    3  N   UNL     1       0.375   5.149   0.000  1.00  0.00    -0.223 NA
BRANCH   3   4
HETATM    4  C   UNL     1      -0.924   4.399   0.000  1.00  0.00     0.054 A 
HETATM    5  C   UNL     1      -2.223   5.149   0.000  1.00  0.00     0.045 A 
HETATM    6  C   UNL     1      -3.522   4.399   0.000  1.00  0.00     0.007 A 
HETATM    7  C   UNL     1      -3.522   2.900   0.000  1.00  0.00     0.005 A 
HETATM    8  C   UNL     1      -2.223   2.150   0.000  1.00  0.00     0.023 A 
HETATM    9  C   UNL     1      -0.924   2.900   0.000  1.00  0.00    -0.030 A 
HETATM   10  C   UNL     1       0.375   2.150   0.000  1.00  0.00     0.028 C 
ENDBRANCH   3   4
ENDBRANCH   1   3
BRANCH   1  11
HETATM   11  N   UNL     1       1.674   7.399   0.000  1.00  0.00    -0.203 NA
BRANCH  11  12
HETATM   12  C   UNL     1       1.674   8.899   0.000  1.00  0.00     0.137 A 
HETATM   13  N   UNL     1       0.375   9.649   0.000  1.00  0.00    -0.257 NA
HETATM   14  C   UNL     1       0.375  11.149   0.000  1.00  0.00     0.127 A 
HETATM   15  C   UNL     1       1.674  11.899   0.000  1.00  0.00     0.027 A 
HETATM   16  C   UNL     1       2.973  11.149   0.000  1.00  0.00     0.010 A 
HETATM   17  C   UNL     1       2.973   9.649   0.000  1.00  0.00     0.066 A 
ENDBRANCH  11  12
ENDBRANCH   1  11
TORSDOF 4
