REMARK  5 active torsions:
REMARK  status: ('A' for Active; 'I' for Inactive)
REMARK    1  A    between atoms: O_4  and  C_19 
REMARK    2  A    between atoms: O_4  and  C_27 
REMARK    3  A    between atoms: C_9  and  C_35 
REMARK    4  A    between atoms: C_22  and  O_28 
REMARK    5  A    between atoms: C_35  and  N_38 
ROOT
HETATM    1 CL   UNL     2      -7.895 -11.559   0.000  1.00  0.00     0.000 Cl
ENDROOT
TORSDOF 5
