REMARK  2 active torsions:
REMARK  status: ('A' for Active; 'I' for Inactive)
REMARK    1  A    between atoms: C_11  and  C_21 
REMARK    2  A    between atoms: C_16  and  C_21 
ROOT
HETATM    1  O   UNL     1      -1.020   3.276   0.000  1.00  0.00    -0.150 OA
HETATM    2  N   UNL     1       0.282   5.524   0.000  1.00  0.00    -0.268 N 
HETATM    3  N   UNL     1       1.578   3.272   0.000  1.00  0.00    -0.275 N 
HETATM    4  O   UNL     1       1.584   7.772   0.000  1.00  0.00    -0.169 OA
HETATM    5  N   UNL     1       4.307   5.982   0.000  1.00  0.00    -0.309 N 
HETATM    6  N   UNL     1       4.304   3.555   0.000  1.00  0.00    -0.214 NA
HETATM    7  C   UNL     1       1.582   6.272   0.000  1.00  0.00     0.216 A 
HETATM    8  C   UNL     1       2.880   5.521   0.000  1.00  0.00     0.138 A 
HETATM    9  C   UNL     1       2.878   4.021   0.000  1.00  0.00     0.167 A 
HETATM   10  C   UNL     1       5.187   4.767   0.000  1.00  0.00     0.122 A 
HETATM   11  C   UNL     1       0.280   4.024   0.000  1.00  0.00     0.266 A 
HETATM   12  C   UNL     1      -1.016   6.276   0.000  1.00  0.00     0.136 C 
HETATM   13  C   UNL     1       1.576   1.772   0.000  1.00  0.00     0.136 C 
HETATM   14  C   UNL     1       4.773   7.408   0.000  1.00  0.00     0.132 C 
ENDROOT
BRANCH  10  15
HETATM   15  C   UNL     1       6.687   4.765   0.000  1.00  0.00     0.064 C 
BRANCH  15  16
HETATM   16  C   UNL     1       7.439   6.063   0.000  1.00  0.00     0.007 A 
HETATM   17  C   UNL     1       6.691   7.364   0.000  1.00  0.00     0.000 A 
HETATM   18  C   UNL     1       7.443   8.662   0.000  1.00  0.00     0.000 A 
HETATM   19  C   UNL     1       8.943   8.659   0.000  1.00  0.00     0.000 A 
HETATM   20  C   UNL     1       9.691   7.359   0.000  1.00  0.00     0.000 A 
HETATM   21  C   UNL     1       8.939   6.061   0.000  1.00  0.00     0.000 A 
ENDBRANCH  15  16
ENDBRANCH  10  15
TORSDOF 2
