REMARK  3 active torsions:
REMARK  status: ('A' for Active; 'I' for Inactive)
REMARK    1  A    between atoms: C_7  and  N_20 
REMARK    2  A    between atoms: C_12  and  C_14 
REMARK    3  A    between atoms: C_13  and  N_20 
ROOT
HETATM    1  N   UNL     1       6.386   3.095   0.000  1.00  0.00    -0.209 N 
HETATM    2  N   UNL     1       8.349   1.668   0.000  1.00  0.00    -0.041 NA
HETATM    3  N   UNL     1       5.922   1.668   0.000  1.00  0.00    -0.018 N 
HETATM    4  P   UNL     1       4.496   1.205   0.000  1.00  0.00     0.391 P 
HETATM    5  O   UNL     1       4.959  -0.222   0.000  1.00  0.00    -0.247 OA
HETATM    6  C   UNL     1       7.886   3.095   0.000  1.00  0.00     0.171 A 
HETATM    7  C   UNL     1       7.136   0.787   0.000  1.00  0.00     0.754 A 
HETATM    8  N   UNL     1       4.032   2.631   0.000  1.00  0.00    -0.274 N 
HETATM    9  C   UNL     1       5.036   3.746   0.000  1.00  0.00     0.237 A 
HETATM   10  C   UNL     1       2.565   2.943   0.000  1.00  0.00     0.132 A 
HETATM   11  N   UNL     1       3.069   0.741   0.000  1.00  0.00    -0.293 N 
HETATM   12  C   UNL     1       1.954   1.745   0.000  1.00  0.00     0.130 A 
HETATM   13  C   UNL     1       2.757  -0.726   0.000  1.00  0.00     0.130 C 
ENDROOT
BRANCH   7  14
HETATM   14  N   UNL     1       7.136  -0.713   0.000  1.00  0.00    -0.068 NA
BRANCH  14  15
HETATM   15  C   UNL     1       8.435  -1.463   0.000  1.00  0.00     0.055 A 
HETATM   16  C   UNL     1       9.734  -0.713   0.000  1.00  0.00     0.042 A 
HETATM   17  C   UNL     1      11.033  -1.463   0.000  1.00  0.00     0.006 A 
HETATM   18  C   UNL     1      11.033  -2.963   0.000  1.00  0.00     0.001 A 
HETATM   19  C   UNL     1       9.734  -3.713   0.000  1.00  0.00     0.006 A 
HETATM   20  C   UNL     1       8.435  -2.963   0.000  1.00  0.00     0.042 A 
ENDBRANCH  14  15
ENDBRANCH   7  14
BRANCH   6  21
HETATM   21  C   UNL     1       8.768   4.309   0.000  1.00  0.00    -0.007 C 
HETATM   22  C   UNL     1       8.157   5.679   0.000  1.00  0.00     0.029 C 
HETATM   23  C   UNL     1      10.259   4.152   0.000  1.00  0.00     0.029 C 
ENDBRANCH   6  21
TORSDOF 3
