REMARK  1 active torsions:
REMARK  status: ('A' for Active; 'I' for Inactive)
REMARK    1  A    between atoms: C_2  and  C_8 
ROOT
HETATM    1  N   UNL     1       3.348  -0.750   0.000  1.00  0.00    -0.288 NA
HETATM    2  C   UNL     1       4.647  -6.000   0.000  1.00  0.00     0.014 A 
HETATM    3  C   UNL     1       4.647  -1.500   0.000  1.00  0.00     0.170 A 
HETATM    4  C   UNL     1       4.647  -3.000   0.000  1.00  0.00     0.096 A 
HETATM    5  C   UNL     1       3.348  -3.750   0.000  1.00  0.00    -0.017 A 
HETATM    6  C   UNL     1       2.049  -3.000   0.000  1.00  0.00     0.050 A 
HETATM    7  C   UNL     1       2.049  -1.500   0.000  1.00  0.00     0.125 A 
HETATM    8  C   UNL     1       3.348  -5.250   0.000  1.00  0.00     0.053 A 
HETATM    9  C   UNL     1       5.946  -5.250   0.000  1.00  0.00     0.165 A 
HETATM   10  O   UNL     1       5.946  -3.750   0.000  1.00  0.00    -0.297 OA
HETATM   11  N   UNL     1       7.245  -6.000   0.000  1.00  0.00    -0.074 NA
ENDROOT
BRANCH   2  12
HETATM   12  C   UNL     1       4.647  -7.500   0.000  1.00  0.00    -0.027 A 
HETATM   13  C   UNL     1       5.946  -8.250   0.000  1.00  0.00     0.026 A 
HETATM   14  C   UNL     1       5.946  -9.750   0.000  1.00  0.00     0.009 A 
HETATM   15  C   UNL     1       4.647 -10.500   0.000  1.00  0.00     0.022 A 
HETATM   16  C   UNL     1       3.348  -9.750   0.000  1.00  0.00    -0.049 A 
HETATM   17  C   UNL     1       3.348  -8.250   0.000  1.00  0.00    -0.034 A 
HETATM   18  C   UNL     1       2.049 -10.500   0.000  1.00  0.00     0.022 A 
HETATM   19  C   UNL     1       2.049  -7.500   0.000  1.00  0.00     0.025 A 
HETATM   20  C   UNL     1       0.750  -8.250   0.000  1.00  0.00     0.005 A 
HETATM   21  C   UNL     1       0.750  -9.750   0.000  1.00  0.00     0.005 A 
ENDBRANCH   2  12
TORSDOF 1
