REMARK  4 active torsions:
REMARK  status: ('A' for Active; 'I' for Inactive)
REMARK    1  A    between atoms: C_2  and  N_18 
REMARK    2  A    between atoms: C_11  and  C_14 
REMARK    3  A    between atoms: C_14  and  C_15 
REMARK    4  A    between atoms: C_15  and  C_16 
REMARK       I    between atoms: C_16  and  N_18 
ROOT
HETATM    1  N   UNL     1      -3.623  -0.275   0.000  1.00  0.00    -0.270 NA
HETATM    2  C   UNL     1      -6.221  -0.275   0.000  1.00  0.00     0.077 A 
HETATM    3  C   UNL     1      -4.922  -1.024   0.000  1.00  0.00     0.082 A 
HETATM    4  C   UNL     1      -7.520  -1.024   0.000  1.00  0.00     0.048 A 
HETATM    5  C   UNL     1      -4.922  -2.525   0.000  1.00  0.00    -0.026 A 
HETATM    6  C   UNL     1      -7.520  -2.525   0.000  1.00  0.00     0.011 A 
HETATM    7  C   UNL     1      -3.623  -3.275   0.000  1.00  0.00     0.026 A 
HETATM    8  C   UNL     1      -2.324  -1.024   0.000  1.00  0.00     0.126 A 
HETATM    9  C   UNL     1      -2.324  -2.525   0.000  1.00  0.00     0.031 A 
HETATM   10  C   UNL     1      -6.221  -3.275   0.000  1.00  0.00     0.024 A 
ENDROOT
BRANCH   2  11
HETATM   11  N   UNL     1      -6.221   1.226   0.000  1.00  0.00    -0.227 NA
HETATM   12  C   UNL     1      -7.520   1.976   0.000  1.00  0.00     0.190 C 
HETATM   13  O   UNL     1      -7.520   3.475   0.000  1.00  0.00    -0.174 OA
BRANCH  12  14
HETATM   14  C   UNL     1      -8.819   1.226   0.000  1.00  0.00     0.086 C 
BRANCH  14  15
HETATM   15  C   UNL     1     -10.118   1.976   0.000  1.00  0.00     0.106 C 
BRANCH  15  16
HETATM   16  C   UNL     1     -11.417   1.226   0.000  1.00  0.00     0.186 C 
HETATM   17  O   UNL     1     -12.716   1.976   0.000  1.00  0.00    -0.647 OA
HETATM   18  O   UNL     1     -11.417  -0.275   0.000  1.00  0.00    -0.647 OA
ENDBRANCH  15  16
ENDBRANCH  14  15
ENDBRANCH  12  14
ENDBRANCH   2  11
TORSDOF 4
