REMARK  2 active torsions:
REMARK  status: ('A' for Active; 'I' for Inactive)
REMARK    1  A    between atoms: C_9  and  O_14 
REMARK    2  A    between atoms: O_14  and  C_15 
ROOT
HETATM    1  C   UNL     1      -1.882   7.240   0.000  1.00  0.00     0.052 A 
HETATM    2  C   UNL     1      -3.181   6.490   0.000  1.00  0.00    -0.047 A 
HETATM    3  C   UNL     1      -0.583   6.490   0.000  1.00  0.00     0.031 A 
HETATM    4  C   UNL     1      -0.583   4.990   0.000  1.00  0.00     0.034 A 
HETATM    5  C   UNL     1      -3.181   4.990   0.000  1.00  0.00    -0.047 A 
HETATM    6  C   UNL     1      -1.882   4.240   0.000  1.00  0.00     0.052 A 
HETATM    7  C   UNL     1      -4.480   7.240   0.000  1.00  0.00     0.026 C 
HETATM    8  C   UNL     1      -4.480   4.240   0.000  1.00  0.00     0.026 C 
HETATM    9  C   UNL     1       0.716   7.240   0.000  1.00  0.00     0.224 A 
HETATM   10  O   UNL     1       2.015   6.490   0.000  1.00  0.00    -0.164 OA
HETATM   11  C   UNL     1       0.716   4.240   0.000  1.00  0.00     0.257 A 
HETATM   12  O   UNL     1       2.015   4.990   0.000  1.00  0.00    -0.161 OA
HETATM   13  O   UNL     1       0.716   2.740   0.000  1.00  0.00    -0.161 OA
ENDROOT
BRANCH   9  14
HETATM   14  O   UNL     1       0.716   8.740   0.000  1.00  0.00    -0.309 OA
BRANCH  14  15
HETATM   15  C   UNL     1      -0.583   9.490   0.000  1.00  0.00     0.151 C 
HETATM   16  C   UNL     1      -0.583  10.990   0.000  1.00  0.00     0.035 C 
ENDBRANCH  14  15
ENDBRANCH   9  14
TORSDOF 2
