REMARK  0 active torsions:
REMARK  status: ('A' for Active; 'I' for Inactive)
ROOT
HETATM    1  O   UNL     1      -0.432   0.016   0.000  1.00  0.00    -0.220 OA
HETATM    2  O   UNL     1      -3.161   1.432   0.000  1.00  0.00    -0.323 OA
HETATM    3  C   UNL     1      -4.400  -0.046   0.000  1.00  0.00     0.095 A 
HETATM    4  C   UNL     1      -2.991   0.467   0.000  1.00  0.00     0.181 A 
HETATM    5  C   UNL     1      -1.841  -0.497   0.000  1.00  0.00     0.185 A 
HETATM    6  C   UNL     1      -4.661  -1.523   0.000  1.00  0.00     0.011 A 
HETATM    7  C   UNL     1      -2.102  -1.974   0.000  1.00  0.00     0.036 A 
HETATM    8  C   UNL     1      -3.511  -2.487   0.000  1.00  0.00     0.003 A 
HETATM    9  C   UNL     1      -2.761  -3.786   0.000  1.00  0.00     0.000 C 
HETATM   10  C   UNL     1      -4.661  -3.451   0.000  1.00  0.00     0.000 C 
HETATM   11  O   UNL     1      -4.661   2.932   0.000  1.00  0.00    -0.329 OA
HETATM   12  C   UNL     1      -5.960   3.682   0.000  1.00  0.00     0.148 A 
HETATM   13  C   UNL     1      -7.259   2.932   0.000  1.00  0.00     0.033 A 
HETATM   14  C   UNL     1      -8.558   3.682   0.000  1.00  0.00     0.003 A 
HETATM   15  C   UNL     1      -9.857   2.932   0.000  1.00  0.00     0.000 A 
HETATM   16  P   UNL     1      -4.661   1.432   0.000  1.00  0.00     0.108 P 
HETATM   17  O   UNL     1      -6.161   1.432   0.000  1.00  0.00     0.000 OA
HETATM   18  C   UNL     1      -6.911   0.133   0.000  1.00  0.00    -0.044 A 
HETATM   19  C   UNL     1      -8.411   0.133   0.000  1.00  0.00     0.022 A 
HETATM   20  C   UNL     1      -9.161   1.432   0.000  1.00  0.00     0.004 A 
HETATM   21  C   UNL     1     -10.661   1.432   0.000  1.00  0.00     0.000 A 
HETATM   22  C   UNL     1      -5.900  -0.046   0.000  1.00  0.00     0.086 A 
ENDROOT
TORSDOF 0
