REMARK  0 active torsions:
REMARK  status: ('A' for Active; 'I' for Inactive)
ROOT
HETATM    1  N   UNL     1      -4.459  -4.941   0.000  1.00  0.00    -0.296 N 
HETATM    2  N   UNL     1      -3.160  -2.691   0.000  1.00  0.00    -0.228 NA
HETATM    3  C   UNL     1      -4.459  -7.941   0.000  1.00  0.00     0.150 A 
HETATM    4  C   UNL     1      -1.861  -3.441   0.000  1.00  0.00     0.152 A 
HETATM    5  C   UNL     1      -1.861  -4.941   0.000  1.00  0.00     0.066 A 
HETATM    6  C   UNL     1      -3.160  -5.691   0.000  1.00  0.00     0.141 A 
HETATM    7  C   UNL     1      -4.459  -3.441   0.000  1.00  0.00     0.237 A 
HETATM    8  C   UNL     1      -5.758  -7.191   0.000  1.00  0.00    -0.008 A 
HETATM    9  C   UNL     1      -7.057  -7.941   0.000  1.00  0.00     0.025 A 
HETATM   10  C   UNL     1      -5.758  -5.691   0.000  1.00  0.00     0.034 A 
HETATM   11  C   UNL     1      -8.356  -7.191   0.000  1.00  0.00     0.005 A 
HETATM   12  C   UNL     1      -7.057  -4.941   0.000  1.00  0.00     0.043 A 
HETATM   13  C   UNL     1      -8.356  -5.691   0.000  1.00  0.00     0.006 A 
HETATM   14  N   UNL     1      -3.160  -7.191   0.000  1.00  0.00    -0.250 NA
HETATM   15  C   UNL     1      -0.434  -5.404   0.000  1.00  0.00     0.146 A 
HETATM   16  N   UNL     1       0.447  -4.191   0.000  1.00  0.00    -0.115 NA
HETATM   17  N   UNL     1      -0.434  -2.977   0.000  1.00  0.00    -0.259 N 
HETATM   18  C   UNL     1       0.029  -1.550   0.000  1.00  0.00     0.149 C 
ENDROOT
TORSDOF 0
