REMARK  3 active torsions:
REMARK  status: ('A' for Active; 'I' for Inactive)
REMARK    1  A    between atoms: P_2  and  O_10 
REMARK    2  A    between atoms: O_10  and  C_11 
REMARK    3  A    between atoms: C_11  and  C_12 
ROOT
HETATM    1  C   UNL     1      -2.124  -3.458   0.000  1.00  0.00     0.123 C 
HETATM    2  C   UNL     1      -0.647  -3.198   0.000  1.00  0.00    -0.003 C 
HETATM    3  N   UNL     1       0.830  -2.937   0.000  1.00  0.00    -0.101 N 
ENDROOT
BRANCH   1   4
HETATM    4  C   UNL     1      -2.638  -4.868   0.000  1.00  0.00     0.169 C 
BRANCH   4   5
HETATM    5  O   UNL     1      -4.115  -5.128   0.000  1.00  0.00    -0.272 OA
BRANCH   5   6
HETATM    6  P   UNL     1      -4.628  -6.538   0.000  1.00  0.00     0.480 P 
HETATM    7  O   UNL     1      -5.927  -5.788   0.000  1.00  0.00    -0.276 OA
HETATM    8  C   UNL     1      -7.226  -6.538   0.000  1.00  0.00     0.129 A 
HETATM    9  C   UNL     1      -7.226  -8.038   0.000  1.00  0.00     0.060 A 
HETATM   10  C   UNL     1      -8.525  -5.788   0.000  1.00  0.00     0.033 C 
HETATM   11  C   UNL     1      -5.927  -8.788   0.000  1.00  0.00     0.129 A 
HETATM   12  O   UNL     1      -4.628  -8.038   0.000  1.00  0.00    -0.276 OA
HETATM   13  C   UNL     1      -5.927 -10.288   0.000  1.00  0.00     0.033 C 
HETATM   14  O   UNL     1      -3.151  -6.798   0.000  1.00  0.00    -0.227 OA
ENDBRANCH   5   6
ENDBRANCH   4   5
ENDBRANCH   1   4
TORSDOF 3
