REMARK  2 active torsions:
REMARK  status: ('A' for Active; 'I' for Inactive)
REMARK    1  A    between atoms: N_3  and  C_19 
REMARK    2  A    between atoms: C_11  and  N_15 
ROOT
HETATM    1 CL   UNL     1       2.973  -3.650   0.000  1.00  0.00    -0.085 Cl
HETATM    2  O   UNL     1       5.571  -5.149   0.000  1.00  0.00    -0.320 OA
HETATM    3  C   UNL     1       6.870  -2.900   0.000  1.00  0.00     0.107 A 
HETATM    4  C   UNL     1       6.870  -1.399   0.000  1.00  0.00     0.100 A 
HETATM    5  C   UNL     1       5.571  -3.650   0.000  1.00  0.00     0.120 A 
HETATM    6  C   UNL     1       4.272  -2.900   0.000  1.00  0.00     0.065 A 
HETATM    7  C   UNL     1       5.571  -0.649   0.000  1.00  0.00     0.094 A 
HETATM    8  C   UNL     1       4.272  -1.399   0.000  1.00  0.00     0.086 A 
HETATM    9  C   UNL     1       6.870  -5.899   0.000  1.00  0.00     0.218 A 
HETATM   10  C   UNL     1       8.169  -5.149   0.000  1.00  0.00     0.167 A 
HETATM   11  O   UNL     1       8.169  -3.650   0.000  1.00  0.00    -0.294 OA
ENDROOT
BRANCH  10  12
HETATM   12  N   UNL     1       9.468  -5.899   0.000  1.00  0.00    -0.326 N 
HETATM   13  C   UNL     1      10.767  -5.149   0.000  1.00  0.00     0.135 A 
HETATM   14  C   UNL     1      12.066  -5.899   0.000  1.00  0.00     0.167 A 
HETATM   15  O   UNL     1      12.066  -7.399   0.000  1.00  0.00    -0.350 OA
HETATM   16  C   UNL     1      10.767  -8.149   0.000  1.00  0.00     0.167 A 
HETATM   17  C   UNL     1       9.468  -7.399   0.000  1.00  0.00     0.135 A 
ENDBRANCH  10  12
BRANCH   7  18
HETATM   18  N   UNL     1       5.571   0.851   0.000  1.00  0.00    -0.121 N 
HETATM   19  O   UNL     1       6.870   1.601   0.000  1.00  0.00    -0.532 OA
HETATM   20  O   UNL     1       4.272   1.601   0.000  1.00  0.00    -0.532 OA
ENDBRANCH   7  18
TORSDOF 2
