REMARK  3 active torsions:
REMARK  status: ('A' for Active; 'I' for Inactive)
REMARK    1  A    between atoms: O_4  and  C_8 
REMARK    2  A    between atoms: O_4  and  C_16 
REMARK    3  A    between atoms: C_15  and  N_17 
ROOT
HETATM    1  O   UNL     1       4.172   6.274   0.000  1.00  0.00    -0.292 OA
ENDROOT
BRANCH   1   2
HETATM    2  C   UNL     1       2.873   5.524   0.000  1.00  0.00     0.091 A 
HETATM    3  C   UNL     1       1.574   6.274   0.000  1.00  0.00     0.090 A 
HETATM    4  C   UNL     1       0.275   5.524   0.000  1.00  0.00     0.049 A 
HETATM    5 CL   UNL     1      -1.024   6.274   0.000  1.00  0.00    -0.086 Cl
HETATM    6  C   UNL     1       0.275   4.024   0.000  1.00  0.00     0.048 A 
HETATM    7 CL   UNL     1      -1.024   3.275   0.000  1.00  0.00    -0.086 Cl
HETATM    8  C   UNL     1       1.574   3.275   0.000  1.00  0.00     0.078 A 
HETATM    9  C   UNL     1       2.873   4.024   0.000  1.00  0.00     0.060 A 
HETATM   10 CL   UNL     1       4.172   3.275   0.000  1.00  0.00    -0.085 Cl
ENDBRANCH   1   2
BRANCH   1  11
HETATM   11  C   UNL     1       4.172   7.774   0.000  1.00  0.00     0.196 A 
HETATM   12  N   UNL     1       2.873   8.524   0.000  1.00  0.00    -0.247 NA
HETATM   13  C   UNL     1       2.873  10.024   0.000  1.00  0.00     0.128 A 
HETATM   14  C   UNL     1       4.172  10.774   0.000  1.00  0.00     0.033 A 
HETATM   15  C   UNL     1       5.471  10.024   0.000  1.00  0.00     0.056 A 
HETATM   16  C   UNL     1       5.471   8.524   0.000  1.00  0.00     0.145 A 
BRANCH  16  17
HETATM   17  N   UNL     1       6.770   7.774   0.000  1.00  0.00    -0.114 N 
HETATM   18  O   UNL     1       6.770   6.274   0.000  1.00  0.00    -0.532 OA
HETATM   19  O   UNL     1       8.069   8.524   0.000  1.00  0.00    -0.532 OA
ENDBRANCH  16  17
ENDBRANCH   1  11
TORSDOF 3
