REMARK  0 active torsions:
REMARK  status: ('A' for Active; 'I' for Inactive)
ROOT
HETATM    1  F   UNL     1      -0.088 -11.454   0.000  1.00  0.00    -0.329 F 
HETATM    2  N   UNL     1      -2.687 -11.454   0.000  1.00  0.00    -0.192 NA
HETATM    3  S   UNL     1      -0.017 -11.315   0.000  1.00  0.00    -0.077 SA
HETATM    4  N   UNL     1      -1.231  -9.213   0.000  1.00  0.00    -0.288 N 
HETATM    5 BR   UNL     1       2.890  -2.940   0.000  1.00  0.00    -0.058 Br
HETATM    6  C   UNL     1      -4.965  -5.850   0.000  1.00  0.00     0.006 A 
HETATM    7  C   UNL     1      -5.277  -7.318   0.000  1.00  0.00     0.006 A 
HETATM    8  C   UNL     1      -3.538  -5.387   0.000  1.00  0.00     0.035 A 
HETATM    9  C   UNL     1      -2.424  -6.391   0.000  1.00  0.00     0.024 A 
HETATM   10  C   UNL     1      -4.162  -8.321   0.000  1.00  0.00     0.044 A 
HETATM   11  C   UNL     1      -2.736  -7.858   0.000  1.00  0.00     0.044 A 
HETATM   12  C   UNL     1       0.178  -5.837   0.000  1.00  0.00     0.013 A 
HETATM   13  C   UNL     1       0.789  -4.467   0.000  1.00  0.00     0.062 A 
HETATM   14  C   UNL     1       1.060  -7.051   0.000  1.00  0.00    -0.006 A 
HETATM   15  C   UNL     1       2.280  -4.310   0.000  1.00  0.00    -0.004 A 
HETATM   16  C   UNL     1       2.552  -6.894   0.000  1.00  0.00     0.033 A 
HETATM   17  C   UNL     1       0.237  -8.901   0.000  1.00  0.00     0.048 A 
HETATM   18  C   UNL     1       0.987 -10.200   0.000  1.00  0.00     0.100 A 
HETATM   19  C   UNL     1       3.162  -5.524   0.000  1.00  0.00     0.034 A 
HETATM   20  C   UNL     1      -1.387 -15.204   0.000  1.00  0.00     0.029 A 
HETATM   21  C   UNL     1      -1.387 -13.704   0.000  1.00  0.00     0.034 A 
HETATM   22  C   UNL     1      -0.088 -15.954   0.000  1.00  0.00     0.005 A 
HETATM   23  C   UNL     1      -0.088 -12.954   0.000  1.00  0.00     0.157 A 
HETATM   24  C   UNL     1       1.211 -15.204   0.000  1.00  0.00     0.004 A 
HETATM   25  C   UNL     1       1.211 -13.704   0.000  1.00  0.00     0.043 A 
HETATM   26  C   UNL     1      -1.387 -10.704   0.000  1.00  0.00     0.303 A 
HETATM   27  C   UNL     1      -2.687 -12.954   0.000  1.00  0.00     0.208 A 
HETATM   28  O   UNL     1      -3.986 -13.704   0.000  1.00  0.00    -0.170 OA
HETATM   29  C   UNL     1      -6.703  -7.781   0.000  1.00  0.00     0.000 C 
HETATM   30  C   UNL     1      -0.997  -5.927   0.000  1.00  0.00    -0.109 A 
ENDROOT
TORSDOF 0
