REMARK  5 active torsions:
REMARK  status: ('A' for Active; 'I' for Inactive)
REMARK    1  A    between atoms: C_4  and  C_21 
REMARK    2  A    between atoms: C_5  and  N_23 
REMARK    3  A    between atoms: C_9  and  N_20 
REMARK    4  A    between atoms: C_12  and  N_19 
REMARK    5  A    between atoms: C_16  and  N_19 
REMARK       I    between atoms: N_20  and  C_21 
ROOT
HETATM    1  C   UNL     1       4.821   6.649   0.000  1.00  0.00     0.047 A 
HETATM    2  C   UNL     1       6.120   5.899   0.000  1.00  0.00     0.040 A 
HETATM    3  C   UNL     1       3.522   5.899   0.000  1.00  0.00     0.047 A 
HETATM    4  C   UNL     1       6.120   4.399   0.000  1.00  0.00     0.047 A 
HETATM    5  C   UNL     1       3.522   4.399   0.000  1.00  0.00     0.037 A 
HETATM    6  C   UNL     1       4.821   3.650   0.000  1.00  0.00     0.047 A 
ENDROOT
BRANCH   2   7
HETATM    7  N   UNL     1       7.419   6.649   0.000  1.00  0.00    -0.229 NA
HETATM    8  C   UNL     1       7.419   8.149   0.000  1.00  0.00     0.204 C 
HETATM    9  O   UNL     1       6.120   8.899   0.000  1.00  0.00    -0.170 OA
BRANCH   8  10
HETATM   10  C   UNL     1       8.718   8.899   0.000  1.00  0.00     0.000 A 
HETATM   11  C   UNL     1       8.718  10.399   0.000  1.00  0.00     0.032 A 
HETATM   12  C   UNL     1      10.017  11.149   0.000  1.00  0.00     0.050 A 
HETATM   13  C   UNL     1      11.316  10.399   0.000  1.00  0.00     0.083 A 
HETATM   14  C   UNL     1      11.316   8.899   0.000  1.00  0.00     0.050 A 
HETATM   15  C   UNL     1      10.017   8.149   0.000  1.00  0.00     0.032 A 
BRANCH  13  16
HETATM   16  N   UNL     1      12.615  11.149   0.000  1.00  0.00    -0.122 N 
HETATM   17  O   UNL     1      12.615  12.649   0.000  1.00  0.00    -0.532 OA
HETATM   18  O   UNL     1      13.914  10.399   0.000  1.00  0.00    -0.532 OA
ENDBRANCH  13  16
ENDBRANCH   8  10
ENDBRANCH   2   7
BRANCH   5  19
HETATM   19  N   UNL     1       2.223   3.650   0.000  1.00  0.00    -0.263 NA
BRANCH  19  20
HETATM   20  C   UNL     1       0.924   4.399   0.000  1.00  0.00     0.040 A 
HETATM   21  C   UNL     1       0.924   5.899   0.000  1.00  0.00     0.067 A 
HETATM   22  C   UNL     1      -0.375   6.649   0.000  1.00  0.00     0.126 A 
HETATM   23  N   UNL     1      -1.674   5.899   0.000  1.00  0.00    -0.295 NA
HETATM   24  C   UNL     1      -1.674   4.399   0.000  1.00  0.00     0.126 A 
HETATM   25  C   UNL     1      -0.375   3.650   0.000  1.00  0.00     0.067 A 
ENDBRANCH  19  20
ENDBRANCH   5  19
TORSDOF 5
