REMARK  7 active torsions:
REMARK  status: ('A' for Active; 'I' for Inactive)
REMARK    1  A    between atoms: C_2  and  N_11 
REMARK    2  A    between atoms: C_7  and  N_20 
REMARK    3  A    between atoms: C_14  and  N_20 
REMARK    4  A    between atoms: C_17  and  C_21 
REMARK       I    between atoms: C_21  and  N_29 
REMARK    5  A    between atoms: C_23  and  N_29 
REMARK    6  A    between atoms: C_26  and  N_36 
REMARK    7  A    between atoms: C_30  and  N_36 
ROOT
HETATM    1  C   UNL     1       9.468  -1.601   0.000  1.00  0.00     0.037 A 
HETATM    2  C   UNL     1       9.468  -3.100   0.000  1.00  0.00     0.046 A 
HETATM    3  C   UNL     1      10.767  -3.850   0.000  1.00  0.00     0.032 A 
HETATM    4  C   UNL     1      12.066  -3.100   0.000  1.00  0.00     0.000 A 
HETATM    5  C   UNL     1      12.066  -1.601   0.000  1.00  0.00     0.032 A 
HETATM    6  C   UNL     1      10.767  -0.851   0.000  1.00  0.00     0.046 A 
ENDROOT
BRANCH   4   7
HETATM    7  C   UNL     1      13.365  -3.850   0.000  1.00  0.00     0.204 C 
HETATM    8  O   UNL     1      13.365  -5.351   0.000  1.00  0.00    -0.170 OA
HETATM    9  N   UNL     1      14.664  -3.100   0.000  1.00  0.00    -0.229 NA
BRANCH   9  10
HETATM   10  C   UNL     1      15.963  -3.850   0.000  1.00  0.00     0.040 A 
HETATM   11  C   UNL     1      15.963  -5.351   0.000  1.00  0.00     0.047 A 
HETATM   12  C   UNL     1      17.262  -6.101   0.000  1.00  0.00     0.047 A 
HETATM   13  C   UNL     1      18.561  -5.351   0.000  1.00  0.00     0.037 A 
HETATM   14  C   UNL     1      18.561  -3.850   0.000  1.00  0.00     0.047 A 
HETATM   15  C   UNL     1      17.262  -3.100   0.000  1.00  0.00     0.047 A 
BRANCH  13  16
HETATM   16  N   UNL     1      19.861  -6.101   0.000  1.00  0.00    -0.263 NA
BRANCH  16  17
HETATM   17  C   UNL     1      21.160  -5.351   0.000  1.00  0.00     0.040 A 
HETATM   18  C   UNL     1      22.459  -6.101   0.000  1.00  0.00     0.067 A 
HETATM   19  C   UNL     1      23.758  -5.351   0.000  1.00  0.00     0.126 A 
HETATM   20  N   UNL     1      23.758  -3.850   0.000  1.00  0.00    -0.295 NA
HETATM   21  C   UNL     1      22.459  -3.100   0.000  1.00  0.00     0.126 A 
HETATM   22  C   UNL     1      21.160  -3.850   0.000  1.00  0.00     0.067 A 
ENDBRANCH  16  17
ENDBRANCH  13  16
ENDBRANCH   9  10
ENDBRANCH   4   7
BRANCH   1  23
HETATM   23  N   UNL     1       8.169  -0.851   0.000  1.00  0.00    -0.259 NA
BRANCH  23  24
HETATM   24  C   UNL     1       8.169   0.649   0.000  1.00  0.00     0.058 A 
HETATM   25  C   UNL     1       6.870   1.399   0.000  1.00  0.00     0.010 A 
HETATM   26  C   UNL     1       5.571   0.649   0.000  1.00  0.00     0.074 A 
HETATM   27  C   UNL     1       6.870   2.900   0.000  1.00  0.00     0.052 A 
HETATM   28  C   UNL     1       4.272   1.399   0.000  1.00  0.00     0.087 A 
HETATM   29  C   UNL     1       4.272   2.900   0.000  1.00  0.00     0.052 A 
HETATM   30  C   UNL     1       5.571   3.650   0.000  1.00  0.00     0.051 A 
HETATM   31  N   UNL     1       8.169   3.650   0.000  1.00  0.00    -0.275 NA
HETATM   32  C   UNL     1       9.468   2.900   0.000  1.00  0.00     0.132 A 
HETATM   33  C   UNL     1       9.468   1.399   0.000  1.00  0.00     0.072 A 
BRANCH  28  34
HETATM   34  N   UNL     1       2.973   0.649   0.000  1.00  0.00    -0.122 N 
HETATM   35  O   UNL     1       1.674   1.399   0.000  1.00  0.00    -0.532 OA
HETATM   36  O   UNL     1       2.973  -0.851   0.000  1.00  0.00    -0.532 OA
ENDBRANCH  28  34
ENDBRANCH  23  24
ENDBRANCH   1  23
TORSDOF 7
