REMARK  4 active torsions:
REMARK  status: ('A' for Active; 'I' for Inactive)
REMARK    1  A    between atoms: C_4  and  C_21 
REMARK    2  A    between atoms: C_9  and  N_20 
REMARK    3  A    between atoms: C_12  and  N_19 
REMARK    4  A    between atoms: C_16  and  N_19 
REMARK       I    between atoms: N_20  and  C_21 
ROOT
HETATM    1  C   UNL     1      -3.348   7.500   0.000  1.00  0.00     0.047 A 
HETATM    2  C   UNL     1      -2.049   8.250   0.000  1.00  0.00     0.040 A 
HETATM    3  C   UNL     1      -3.348   6.000   0.000  1.00  0.00     0.047 A 
HETATM    4  C   UNL     1      -0.750   7.500   0.000  1.00  0.00     0.047 A 
HETATM    5  C   UNL     1      -2.049   5.250   0.000  1.00  0.00     0.037 A 
HETATM    6  C   UNL     1      -0.750   6.000   0.000  1.00  0.00     0.047 A 
ENDROOT
BRANCH   2   7
HETATM    7  N   UNL     1      -2.049   9.750   0.000  1.00  0.00    -0.229 NA
HETATM    8  C   UNL     1      -3.348  10.500   0.000  1.00  0.00     0.204 C 
HETATM    9  O   UNL     1      -4.647   9.750   0.000  1.00  0.00    -0.170 OA
BRANCH   8  10
HETATM   10  C   UNL     1      -3.348  12.000   0.000  1.00  0.00    -0.000 A 
HETATM   11  C   UNL     1      -4.647  12.750   0.000  1.00  0.00     0.028 A 
HETATM   12  C   UNL     1      -4.647  14.250   0.000  1.00  0.00     0.043 A 
HETATM   13  C   UNL     1      -3.348  15.000   0.000  1.00  0.00     0.303 A 
HETATM   14  C   UNL     1      -2.049  14.250   0.000  1.00  0.00     0.043 A 
HETATM   15  N   UNL     1      -3.348  16.500   0.000  1.00  0.00     0.616 N 
HETATM   16  C   UNL     1      -2.049  12.750   0.000  1.00  0.00     0.028 A 
ENDBRANCH   8  10
ENDBRANCH   2   7
BRANCH   5  17
HETATM   17  N   UNL     1      -2.049   3.750   0.000  1.00  0.00    -0.263 NA
BRANCH  17  18
HETATM   18  C   UNL     1      -3.348   3.000   0.000  1.00  0.00     0.040 A 
HETATM   19  C   UNL     1      -4.647   3.750   0.000  1.00  0.00     0.067 A 
HETATM   20  C   UNL     1      -5.946   3.000   0.000  1.00  0.00     0.126 A 
HETATM   21  N   UNL     1      -5.946   1.500   0.000  1.00  0.00    -0.295 NA
HETATM   22  C   UNL     1      -4.647   0.750   0.000  1.00  0.00     0.126 A 
HETATM   23  C   UNL     1      -3.348   1.500   0.000  1.00  0.00     0.067 A 
ENDBRANCH  17  18
ENDBRANCH   5  17
TORSDOF 4
