REMARK  1 active torsions:
REMARK  status: ('A' for Active; 'I' for Inactive)
REMARK    1  A    between atoms: C_17  and  CA_18 
ROOT
HETATM    1  C   UNL     1       0.750  -5.250   0.000  1.00  0.00     0.005 A 
HETATM    2  C   UNL     1       0.750  -6.750   0.000  1.00  0.00     0.005 A 
HETATM    3  C   UNL     1       2.049  -4.500   0.000  1.00  0.00     0.026 A 
HETATM    4  C   UNL     1       2.049  -7.500   0.000  1.00  0.00     0.029 A 
HETATM    5  C   UNL     1       3.348  -5.250   0.000  1.00  0.00    -0.026 A 
HETATM    6  C   UNL     1       3.348  -6.750   0.000  1.00  0.00     0.010 A 
HETATM    7  C   UNL     1       4.647  -3.000   0.000  1.00  0.00     0.061 A 
HETATM    8  C   UNL     1       4.647  -7.500   0.000  1.00  0.00     0.163 A 
HETATM    9  C   UNL     1       4.647  -4.500   0.000  1.00  0.00    -0.007 A 
HETATM   10  C   UNL     1       5.946  -5.250   0.000  1.00  0.00     0.063 A 
HETATM   11  C   UNL     1       5.946  -2.250   0.000  1.00  0.00     0.018 A 
HETATM   12 CL   UNL     1       5.946  -0.750   0.000  1.00  0.00    -0.091 Cl
HETATM   13  N   UNL     1       5.946  -6.750   0.000  1.00  0.00    -0.204 N 
HETATM   14  C   UNL     1       7.245  -3.000   0.000  1.00  0.00     0.040 A 
HETATM   15  C   UNL     1       7.245  -4.500   0.000  1.00  0.00     0.051 A 
HETATM   16  N   UNL     1       4.647  -9.000   0.000  1.00  0.00    -0.233 NA
HETATM   17  CA  UNL     1       5.946  -9.750   0.000  1.00  0.00     0.071 A 
HETATM   18  C   UNL     1       7.245  -9.000   0.000  1.00  0.00     0.216 A 
HETATM   19  O   UNL     1       7.245  -7.500   0.000  1.00  0.00    -0.246 OA
ENDROOT
BRANCH  17  20
HETATM   20  C   UNL     1       5.946 -11.250   0.000  1.00  0.00     0.044 C 
HETATM   21  C   UNL     1       7.245 -12.000   0.000  1.00  0.00     0.006 C 
ENDBRANCH  17  20
TORSDOF 1
