REMARK  0 active torsions:
REMARK  status: ('A' for Active; 'I' for Inactive)
ROOT
HETATM    1  O   UNL     1      -3.137  -3.206   0.000  1.00  0.00    -0.189 OA
HETATM    2  O   UNL     1       0.390  -8.060   0.000  1.00  0.00    -0.189 OA
HETATM    3  N   UNL     1       0.118  -3.049   0.000  1.00  0.00    -0.350 N 
HETATM    4  H   UNL     1      -0.345  -1.623   0.000  1.00  0.00     0.162 HD
HETATM    5  N   UNL     1       1.545  -5.013   0.000  1.00  0.00    -0.242 NA
HETATM    6  C   UNL     1      -2.255  -4.420   0.000  1.00  0.00     0.143 A 
HETATM    7  C   UNL     1      -0.763  -4.263   0.000  1.00  0.00     0.099 A 
HETATM    8  C   UNL     1      -2.865  -5.790   0.000  1.00  0.00     0.003 A 
HETATM    9  C   UNL     1      -4.357  -5.947   0.000  1.00  0.00     0.028 A 
HETATM   10  C   UNL     1      -4.967  -7.317   0.000  1.00  0.00     0.005 A 
HETATM   11  C   UNL     1       0.118  -5.476   0.000  1.00  0.00     0.120 A 
HETATM   12  C   UNL     1      -1.984  -7.004   0.000  1.00  0.00     0.003 A 
HETATM   13  C   UNL     1      -4.086  -8.531   0.000  1.00  0.00     0.005 A 
HETATM   14  C   UNL     1      -0.492  -6.847   0.000  1.00  0.00     0.145 A 
HETATM   15  C   UNL     1      -2.594  -8.374   0.000  1.00  0.00     0.028 A 
HETATM   16  C   UNL     1       1.545  -3.513   0.000  1.00  0.00     0.228 A 
ENDROOT
TORSDOF 0
