REMARK  0 active torsions:
REMARK  status: ('A' for Active; 'I' for Inactive)
ROOT
HETATM    1  C   UNL     1       1.367   2.825   0.000  1.00  0.00     0.007 A 
HETATM    2  C   UNL     1       1.367   1.325   0.000  1.00  0.00     0.005 A 
HETATM    3  C   UNL     1       2.666   3.575   0.000  1.00  0.00     0.043 A 
HETATM    4  C   UNL     1       2.666   0.575   0.000  1.00  0.00     0.027 A 
HETATM    5  C   UNL     1       3.965   2.825   0.000  1.00  0.00     0.029 A 
HETATM    6  C   UNL     1       3.965   1.325   0.000  1.00  0.00    -0.013 A 
HETATM    7  H   UNL     1       5.855   4.715   0.000  1.00  0.00     0.166 HD
HETATM    8  N   UNL     1       5.392   3.288   0.000  1.00  0.00    -0.354 N 
HETATM    9  C   UNL     1       5.392   0.861   0.000  1.00  0.00    -0.004 A 
HETATM   10  C   UNL     1       6.274   2.075   0.000  1.00  0.00     0.094 A 
HETATM   11  C   UNL     1       7.765   1.918   0.000  1.00  0.00     0.203 A 
HETATM   12  C   UNL     1       6.002  -0.509   0.000  1.00  0.00     0.052 A 
HETATM   13  O   UNL     1       8.647   3.132   0.000  1.00  0.00    -0.170 OA
HETATM   14  N   UNL     1       8.375   0.548   0.000  1.00  0.00    -0.351 N 
HETATM   15  C   UNL     1       7.494  -0.666   0.000  1.00  0.00     0.104 A 
HETATM   16  H   UNL     1       9.867   0.391   0.000  1.00  0.00     0.162 HD
ENDROOT
TORSDOF 0
