REMARK  2 active torsions:
REMARK  status: ('A' for Active; 'I' for Inactive)
REMARK    1  A    between atoms: N_1  and  C_12 
REMARK    2  A    between atoms: N_2  and  C_5 
ROOT
HETATM    1  N   UNL     1       2.873   5.524   0.000  1.00  0.00    -0.348 N 
HETATM    2  N   UNL     1       5.471   7.024   0.000  1.00  0.00    -0.347 N 
HETATM    3  C   UNL     1       4.172   7.774   0.000  1.00  0.00     0.126 A 
HETATM    4  C   UNL     1       2.873   7.024   0.000  1.00  0.00     0.125 A 
HETATM    5  C   UNL     1       5.471   5.524   0.000  1.00  0.00     0.126 A 
HETATM    6  C   UNL     1       4.172   4.774   0.000  1.00  0.00     0.125 A 
ENDROOT
BRANCH   1   7
HETATM    7  C   UNL     1       1.574   4.774   0.000  1.00  0.00     0.025 A 
HETATM    8  C   UNL     1       0.275   5.524   0.000  1.00  0.00    -0.033 A 
HETATM    9  C   UNL     1      -1.024   4.774   0.000  1.00  0.00     0.023 A 
HETATM   10  C   UNL     1       0.275   7.024   0.000  1.00  0.00     0.028 C 
HETATM   11  C   UNL     1      -1.024   3.275   0.000  1.00  0.00     0.005 A 
HETATM   12  C   UNL     1       0.275   2.525   0.000  1.00  0.00     0.006 A 
HETATM   13  C   UNL     1       1.574   3.275   0.000  1.00  0.00     0.043 A 
HETATM   14  C   UNL     1       0.275   1.024   0.000  1.00  0.00     0.000 C 
ENDBRANCH   1   7
BRANCH   2  15
HETATM   15  C   UNL     1       6.770   7.774   0.000  1.00  0.00     0.046 A 
HETATM   16  C   UNL     1       6.770   9.274   0.000  1.00  0.00     0.083 A 
HETATM   17  C   UNL     1       8.069  10.024   0.000  1.00  0.00     0.161 A 
HETATM   18  N   UNL     1       5.471  10.024   0.000  1.00  0.00    -0.102 NA
HETATM   19  N   UNL     1       9.368   9.274   0.000  1.00  0.00    -0.289 NA
HETATM   20  C   UNL     1       9.368   7.774   0.000  1.00  0.00     0.127 A 
HETATM   21  C   UNL     1       8.069   7.024   0.000  1.00  0.00     0.070 A 
ENDBRANCH   2  15
TORSDOF 2
