REMARK  2 active torsions:
REMARK  status: ('A' for Active; 'I' for Inactive)
REMARK    1  A    between atoms: C_7  and  N_8 
REMARK    2  A    between atoms: S_9  and  C_10 
ROOT
HETATM    1  N   UNL     1       6.750   3.390   0.000  1.00  0.00    -0.266 N 
HETATM    2  C   UNL     1       7.632   4.604   0.000  1.00  0.00     0.194 A 
HETATM    3  C   UNL     1       7.632   2.177   0.000  1.00  0.00     0.243 A 
HETATM    4  N   UNL     1       9.058   4.140   0.000  1.00  0.00    -0.121 NA
HETATM    5  N   UNL     1       9.058   2.640   0.000  1.00  0.00    -0.113 NA
HETATM    6  N   UNL     1       7.168   0.750   0.000  1.00  0.00    -0.059 NA
ENDROOT
BRANCH   1   7
HETATM    7  C   UNL     1       5.250   3.390   0.000  1.00  0.00     0.024 A 
HETATM    8  C   UNL     1       4.500   2.091   0.000  1.00  0.00     0.045 A 
HETATM    9  C   UNL     1       3.000   2.091   0.000  1.00  0.00     0.040 A 
HETATM   10  C   UNL     1       2.250   3.390   0.000  1.00  0.00     0.014 A 
HETATM   11 CL   UNL     1       0.750   3.390   0.000  1.00  0.00    -0.092 Cl
HETATM   12  C   UNL     1       3.000   4.689   0.000  1.00  0.00     0.040 A 
HETATM   13  C   UNL     1       4.500   4.689   0.000  1.00  0.00     0.045 A 
ENDBRANCH   1   7
BRANCH   2  14
HETATM   14  S   UNL     1       7.168   6.030   0.000  1.00  0.00    -0.103 SA
HETATM   15  H   UNL     1       8.172   7.145   0.000  1.00  0.00     0.110 HD
ENDBRANCH   2  14
TORSDOF 2
