REMARK  2 active torsions:
REMARK  status: ('A' for Active; 'I' for Inactive)
REMARK    1  A    between atoms: C_1  and  N_3 
REMARK    2  A    between atoms: N_3  and  C_4 
ROOT
HETATM    1  C   UNL     1      -3.750  -2.049   0.000  1.00  0.00     0.181 A 
HETATM    2  S   UNL     1      -3.000  -0.750   0.000  1.00  0.00    -0.076 SA
HETATM    3  N   UNL     1      -3.000  -3.348   0.000  1.00  0.00    -0.248 NA
HETATM    4  C   UNL     1      -1.500  -3.348   0.000  1.00  0.00     0.129 A 
HETATM    5  C   UNL     1      -0.750  -2.049   0.000  1.00  0.00     0.038 A 
HETATM    6  C   UNL     1      -1.500  -0.750   0.000  1.00  0.00     0.067 A 
ENDROOT
BRANCH   1   7
HETATM    7  N   UNL     1      -5.250  -2.049   0.000  1.00  0.00    -0.248 NA
BRANCH   7   8
HETATM    8  C   UNL     1      -6.000  -0.750   0.000  1.00  0.00     0.128 C 
HETATM    9  C   UNL     1      -7.500  -0.750   0.000  1.00  0.00     0.029 C 
ENDBRANCH   7   8
ENDBRANCH   1   7
TORSDOF 2
