REMARK  4 active torsions:
REMARK  status: ('A' for Active; 'I' for Inactive)
REMARK    1  A    between atoms: C_10  and  C_13 
REMARK    2  A    between atoms: C_13  and  C_14 
REMARK    3  A    between atoms: C_14  and  C_16 
REMARK    4  A    between atoms: C_16  and  C_17 
ROOT
HETATM    1  O   UNL     1      -1.024   3.275   0.000  1.00  0.00    -0.223 OA
HETATM    2  C   UNL     1       1.574   6.274   0.000  1.00  0.00     0.050 A 
HETATM    3  C   UNL     1       0.275   5.524   0.000  1.00  0.00     0.040 A 
HETATM    4  C   UNL     1       2.873   5.524   0.000  1.00  0.00     0.145 A 
HETATM    5  C   UNL     1       2.873   4.024   0.000  1.00  0.00     0.035 A 
HETATM    6  C   UNL     1       0.275   4.024   0.000  1.00  0.00     0.153 A 
HETATM    7  C   UNL     1       1.574   3.275   0.000  1.00  0.00     0.036 A 
HETATM    8  C   UNL     1       0.609   7.424   0.000  1.00  0.00     0.007 C 
HETATM    9  C   UNL     1       2.538   7.424   0.000  1.00  0.00    -0.030 A 
HETATM   10  C   UNL     1       3.386   6.934   0.000  1.00  0.00    -0.021 A 
HETATM   11  C   UNL     1       4.172   3.275   0.000  1.00  0.00     0.003 C 
HETATM   12  O   UNL     1       4.350   5.264   0.000  1.00  0.00    -0.222 OA
ENDROOT
BRANCH  10  13
HETATM   13  C   UNL     1       4.863   7.194   0.000  1.00  0.00     0.025 C 
BRANCH  13  14
HETATM   14  C   UNL     1       5.376   8.604   0.000  1.00  0.00     0.015 C 
HETATM   15  C   UNL     1       4.412   9.753   0.000  1.00  0.00     0.001 C 
BRANCH  14  16
HETATM   16  C   UNL     1       6.853   8.864   0.000  1.00  0.00     0.098 C 
BRANCH  16  17
HETATM   17  C   UNL     1       7.366  10.274   0.000  1.00  0.00     0.185 C 
HETATM   18  O   UNL     1       8.843  10.534   0.000  1.00  0.00    -0.647 OA
HETATM   19  O   UNL     1       6.402  11.423   0.000  1.00  0.00    -0.647 OA
ENDBRANCH  16  17
ENDBRANCH  14  16
ENDBRANCH  13  14
ENDBRANCH  10  13
TORSDOF 4
