REMARK  3 active torsions:
REMARK  status: ('A' for Active; 'I' for Inactive)
REMARK    1  A    between atoms: N_2  and  C_15 
REMARK    2  A    between atoms: N_4  and  C_9 
REMARK    3  A    between atoms: C_20  and  C_22 
ROOT
HETATM    1  O   UNL     1       3.348   3.000   0.000  1.00  0.00    -0.171 OA
HETATM    2  N   UNL     1       4.647   5.250   0.000  1.00  0.00    -0.258 N 
HETATM    3  O   UNL     1       5.946   7.500   0.000  1.00  0.00    -0.150 OA
HETATM    4  N   UNL     1       7.245   5.250   0.000  1.00  0.00    -0.258 N 
HETATM    5  O   UNL     1       8.544   3.000   0.000  1.00  0.00    -0.171 OA
HETATM    6  C   UNL     1       5.946   6.000   0.000  1.00  0.00     0.273 A 
HETATM    7  C   UNL     1       7.245   3.750   0.000  1.00  0.00     0.202 A 
HETATM    8  C   UNL     1       5.946   3.000   0.000  1.00  0.00     0.102 A 
HETATM    9  C   UNL     1       4.647   3.750   0.000  1.00  0.00     0.202 A 
ENDROOT
BRANCH   2  10
HETATM   10  C   UNL     1       3.348   6.000   0.000  1.00  0.00     0.024 A 
HETATM   11  C   UNL     1       3.348   7.500   0.000  1.00  0.00     0.040 A 
HETATM   12  C   UNL     1       2.049   8.250   0.000  1.00  0.00     0.006 A 
HETATM   13  C   UNL     1       0.750   7.500   0.000  1.00  0.00     0.001 A 
HETATM   14  C   UNL     1       0.750   6.000   0.000  1.00  0.00     0.006 A 
HETATM   15  C   UNL     1       2.049   5.250   0.000  1.00  0.00     0.040 A 
ENDBRANCH   2  10
BRANCH   4  16
HETATM   16  C   UNL     1       8.544   6.000   0.000  1.00  0.00     0.024 A 
HETATM   17  C   UNL     1       8.544   7.500   0.000  1.00  0.00     0.040 A 
HETATM   18  C   UNL     1       9.843   8.250   0.000  1.00  0.00     0.006 A 
HETATM   19  C   UNL     1      11.142   7.500   0.000  1.00  0.00     0.001 A 
HETATM   20  C   UNL     1      11.142   6.000   0.000  1.00  0.00     0.006 A 
HETATM   21  C   UNL     1       9.843   5.250   0.000  1.00  0.00     0.040 A 
ENDBRANCH   4  16
BRANCH   8  22
HETATM   22  C   UNL     1       5.946   1.500   0.000  1.00  0.00     0.372 C 
HETATM   23  N   UNL     1       4.647   0.750   0.000  1.00  0.00     0.624 N 
ENDBRANCH   8  22
TORSDOF 3
