REMARK  2 active torsions:
REMARK  status: ('A' for Active; 'I' for Inactive)
REMARK    1  A    between atoms: N_1  and  C_12 
REMARK    2  A    between atoms: C_18  and  C_20 
ROOT
HETATM    1  N   UNL     1      -8.954   3.052   0.000  1.00  0.00    -0.334 N 
HETATM    2  C   UNL     1     -11.171   1.442   0.000  1.00  0.00     0.043 A 
HETATM    3  C   UNL     1      -9.704   1.753   0.000  1.00  0.00     0.033 A 
HETATM    4  C   UNL     1     -11.635   0.015   0.000  1.00  0.00     0.007 A 
HETATM    5  C   UNL     1      -8.700   0.639   0.000  1.00  0.00    -0.010 A 
HETATM    6  C   UNL     1     -10.631  -1.100   0.000  1.00  0.00     0.005 A 
HETATM    7  C   UNL     1      -7.330   1.249   0.000  1.00  0.00     0.034 A 
HETATM    8  C   UNL     1      -7.487   2.741   0.000  1.00  0.00     0.135 A 
HETATM    9  C   UNL     1      -9.164  -0.788   0.000  1.00  0.00     0.027 A 
ENDROOT
BRANCH   7  10
HETATM   10  C   UNL     1      -6.031   0.499   0.000  1.00  0.00     0.165 A 
HETATM   11  N   UNL     1      -6.031  -1.001   0.000  1.00  0.00    -0.198 NA
HETATM   12  C   UNL     1      -4.732  -1.751   0.000  1.00  0.00     0.227 A 
HETATM   13 CL   UNL     1      -4.732  -3.251   0.000  1.00  0.00    -0.041 Cl
HETATM   14  N   UNL     1      -3.433  -1.001   0.000  1.00  0.00    -0.187 NA
HETATM   15  C   UNL     1      -3.433   0.499   0.000  1.00  0.00     0.227 A 
HETATM   16  N   UNL     1      -4.732   1.249   0.000  1.00  0.00    -0.198 NA
HETATM   17 CL   UNL     1      -2.134   1.249   0.000  1.00  0.00    -0.041 Cl
ENDBRANCH   7  10
BRANCH   1  18
HETATM   18  C   UNL     1      -9.564   4.423   0.000  1.00  0.00     0.015 A 
HETATM   19  C   UNL     1      -8.682   5.636   0.000  1.00  0.00     0.039 A 
HETATM   20  C   UNL     1      -9.292   7.007   0.000  1.00  0.00     0.006 A 
HETATM   21  C   UNL     1     -10.784   7.163   0.000  1.00  0.00     0.001 A 
HETATM   22  C   UNL     1     -11.666   5.950   0.000  1.00  0.00     0.006 A 
HETATM   23  C   UNL     1     -11.056   4.580   0.000  1.00  0.00     0.039 A 
ENDBRANCH   1  18
TORSDOF 2
