REMARK  3 active torsions:
REMARK  status: ('A' for Active; 'I' for Inactive)
REMARK    1  A    between atoms: C_2  and  O_9 
REMARK    2  A    between atoms: C_5  and  N_11 
REMARK       I    between atoms: N_11  and  C_12 
REMARK    3  A    between atoms: C_12  and  C_14 
ROOT
HETATM    1  O   UNL     1     -10.917  -3.397   0.000  1.00  0.00    -0.190 OA
HETATM    2  C   UNL     1      -7.769  -0.950   0.000  1.00  0.00     0.098 A 
HETATM    3  C   UNL     1      -9.121  -1.600   0.000  1.00  0.00     0.052 A 
HETATM    4  C   UNL     1      -6.418  -1.600   0.000  1.00  0.00     0.043 A 
HETATM    5  C   UNL     1      -6.084  -3.063   0.000  1.00  0.00     0.085 A 
HETATM    6  C   UNL     1      -9.454  -3.063   0.000  1.00  0.00     0.133 A 
HETATM    7  C   UNL     1      -7.019  -4.236   0.000  1.00  0.00     0.021 A 
HETATM    8  C   UNL     1      -8.519  -4.236   0.000  1.00  0.00     0.029 A 
ENDROOT
BRANCH   5   9
HETATM    9  N   UNL     1      -4.622  -3.397   0.000  1.00  0.00    -0.223 NA
HETATM   10  C   UNL     1      -3.601  -2.297   0.000  1.00  0.00     0.206 C 
HETATM   11  O   UNL     1      -4.043  -0.864   0.000  1.00  0.00    -0.173 OA
BRANCH  10  12
HETATM   12  C   UNL     1      -2.139  -2.631   0.000  1.00  0.00     0.169 C 
HETATM   13 CL   UNL     1      -1.119  -1.531   0.000  1.00  0.00    -0.104 Cl
ENDBRANCH  10  12
ENDBRANCH   5   9
BRANCH   2  14
HETATM   14  O   UNL     1      -7.769   0.550   0.000  1.00  0.00    -0.328 OA
HETATM   15  C   UNL     1      -9.068   1.300   0.000  1.00  0.00     0.181 C 
ENDBRANCH   2  14
TORSDOF 3
