REMARK  6 active torsions:
REMARK  status: ('A' for Active; 'I' for Inactive)
REMARK    1  A    between atoms: C_1  and  C_2 
REMARK    2  A    between atoms: C_1  and  C_13 
REMARK    3  A    between atoms: C_2  and  C_3 
REMARK    4  A    between atoms: C_3  and  C_4 
REMARK    5  A    between atoms: C_4  and  C_5 
REMARK    6  A    between atoms: C_5  and  C_7 
ROOT
HETATM    1  C   UNL     1      -7.245  -3.750   0.000  1.00  0.00     0.152 C 
HETATM    2  O   UNL     1      -7.245  -5.250   0.000  1.00  0.00    -0.224 OA
ENDROOT
BRANCH   1   3
HETATM    3  C   UNL     1      -8.544  -3.000   0.000  1.00  0.00     0.033 C 
BRANCH   3   4
HETATM    4  C   UNL     1      -9.843  -3.750   0.000  1.00  0.00     0.005 C 
BRANCH   4   5
HETATM    5  C   UNL     1     -11.142  -3.000   0.000  1.00  0.00     0.024 A 
HETATM    6  C   UNL     1     -11.142  -1.500   0.000  1.00  0.00     0.120 A 
HETATM    7  N   UNL     1     -12.441  -0.750   0.000  1.00  0.00    -0.296 NA
HETATM    8  C   UNL     1     -13.740  -1.500   0.000  1.00  0.00     0.120 A 
HETATM    9  C   UNL     1     -13.740  -3.000   0.000  1.00  0.00     0.026 A 
HETATM   10  C   UNL     1     -12.441  -3.750   0.000  1.00  0.00     0.004 A 
ENDBRANCH   4   5
ENDBRANCH   3   4
ENDBRANCH   1   3
BRANCH   1  11
HETATM   11  C   UNL     1      -5.946  -3.000   0.000  1.00  0.00     0.033 C 
BRANCH  11  12
HETATM   12  C   UNL     1      -4.647  -3.750   0.000  1.00  0.00     0.005 C 
BRANCH  12  13
HETATM   13  C   UNL     1      -3.348  -3.000   0.000  1.00  0.00     0.024 A 
HETATM   14  C   UNL     1      -2.049  -3.750   0.000  1.00  0.00     0.004 A 
HETATM   15  C   UNL     1      -0.750  -3.000   0.000  1.00  0.00     0.026 A 
HETATM   16  C   UNL     1      -0.750  -1.500   0.000  1.00  0.00     0.120 A 
HETATM   17  N   UNL     1      -2.049  -0.750   0.000  1.00  0.00    -0.296 NA
HETATM   18  C   UNL     1      -3.348  -1.500   0.000  1.00  0.00     0.120 A 
ENDBRANCH  12  13
ENDBRANCH  11  12
ENDBRANCH   1  11
TORSDOF 6
