REMARK  0 active torsions:
REMARK  status: ('A' for Active; 'I' for Inactive)
ROOT
HETATM    1  O   UNL     1      -7.245  -0.750   0.000  1.00  0.00    -0.080 OA
HETATM    2  N   UNL     1      -7.245  -2.250   0.000  1.00  0.00    -0.191 N 
HETATM    3  N   UNL     1      -7.245  -5.250   0.000  1.00  0.00    -0.191 N 
HETATM    4  O   UNL     1      -7.245  -6.750   0.000  1.00  0.00    -0.080 OA
HETATM    5  C   UNL     1      -9.843  -2.250   0.000  1.00  0.00     0.048 A 
HETATM    6  C   UNL     1      -8.544  -3.000   0.000  1.00  0.00     0.081 A 
HETATM    7  C   UNL     1     -11.142  -3.000   0.000  1.00  0.00     0.007 A 
HETATM    8  C   UNL     1      -8.544  -4.500   0.000  1.00  0.00     0.081 A 
HETATM    9  C   UNL     1     -11.142  -4.500   0.000  1.00  0.00     0.007 A 
HETATM   10  C   UNL     1      -9.843  -5.250   0.000  1.00  0.00     0.048 A 
HETATM   11  C   UNL     1      -5.946  -3.000   0.000  1.00  0.00     0.086 A 
HETATM   12  C   UNL     1      -5.946  -4.500   0.000  1.00  0.00     0.086 A 
HETATM   13  C   UNL     1      -3.348  -3.000   0.000  1.00  0.00    -0.046 A 
HETATM   14  C   UNL     1      -2.049  -2.250   0.000  1.00  0.00     0.022 A 
HETATM   15  C   UNL     1      -3.348  -4.500   0.000  1.00  0.00    -0.046 A 
HETATM   16  C   UNL     1      -0.750  -3.000   0.000  1.00  0.00     0.005 A 
HETATM   17  C   UNL     1      -2.049  -5.250   0.000  1.00  0.00     0.022 A 
HETATM   18  C   UNL     1      -0.750  -4.500   0.000  1.00  0.00     0.005 A 
HETATM   19  C   UNL     1      -4.647  -2.250   0.000  1.00  0.00     0.069 A 
HETATM   20  C   UNL     1      -4.647  -5.250   0.000  1.00  0.00     0.069 A 
ENDROOT
TORSDOF 0
