REMARK  1 active torsions:
REMARK  status: ('A' for Active; 'I' for Inactive)
REMARK    1  A    between atoms: O_1  and  C_11 
ROOT
HETATM    1  O   UNL     1       5.046   5.411   0.000  1.00  0.00     0.000 OA
HETATM    2  O   UNL     1       8.544   2.250   0.000  1.00  0.00    -0.310 OA
HETATM    3  O   UNL     1      11.142   2.250   0.000  1.00  0.00    -0.161 OA
HETATM    4  C   UNL     1       7.245   7.500   0.000  1.00  0.00     0.134 A 
HETATM    5  C   UNL     1       5.946   6.750   0.000  1.00  0.00     0.193 A 
HETATM    6  C   UNL     1       8.544   6.750   0.000  1.00  0.00     0.000 A 
HETATM    7  C   UNL     1       8.544   5.250   0.000  1.00  0.00     0.007 A 
HETATM    8  C   UNL     1       5.946   5.250   0.000  1.00  0.00     0.044 A 
HETATM    9  C   UNL     1       9.843   4.500   0.000  1.00  0.00     0.175 A 
HETATM   10  C   UNL     1       7.245   4.500   0.000  1.00  0.00     0.049 A 
HETATM   11  C   UNL     1       5.796   4.112   0.000  1.00  0.00     0.014 A 
HETATM   12  C   UNL     1       4.647   4.500   0.000  1.00  0.00     0.055 A 
HETATM   13  C   UNL     1       3.348   5.250   0.000  1.00  0.00     0.148 A 
HETATM   14  C   UNL     1       2.049   4.500   0.000  1.00  0.00     0.179 A 
HETATM   15  C   UNL     1       9.843   3.000   0.000  1.00  0.00     0.254 A 
HETATM   16  C   UNL     1       7.245   3.000   0.000  1.00  0.00     0.127 A 
HETATM   17  C   UNL     1       4.647   3.000   0.000  1.00  0.00     0.008 A 
HETATM   18  C   UNL     1       2.049   3.000   0.000  1.00  0.00     0.035 A 
HETATM   19  C   UNL     1       5.946   2.250   0.000  1.00  0.00     0.031 A 
HETATM   20  C   UNL     1       3.348   2.250   0.000  1.00  0.00     0.003 A 
HETATM   21  O   UNL     1       0.750   5.250   0.000  1.00  0.00    -0.221 OA
HETATM   22  O   UNL     1       3.348   6.750   0.000  1.00  0.00    -0.353 OA
HETATM   23  C   UNL     1       3.348   0.750   0.000  1.00  0.00     0.000 C 
HETATM   24  C   UNL     1       4.647   6.000   0.000  1.00  0.00     0.151 A 
HETATM   25  O   UNL     1       4.922   7.846   0.000  1.00  0.00    -0.217 OA
HETATM   26  O   UNL     1       7.245   9.000   0.000  1.00  0.00    -0.193 OA
HETATM   27  C   UNL     1       9.843   7.500   0.000  1.00  0.00     0.033 C 
HETATM   28  O   UNL     1      11.142   5.250   0.000  1.00  0.00    -0.186 OA
ENDROOT
TORSDOF 1
