REMARK  0 active torsions:
REMARK  status: ('A' for Active; 'I' for Inactive)
ROOT
HETATM    1  N   UNL     1       2.873   5.524   0.000  1.00  0.00    -0.339 N 
HETATM    2  C   UNL     1       1.573   6.274   0.000  1.00  0.00     0.102 A 
HETATM    3  C   UNL     1       0.275   5.524   0.000  1.00  0.00     0.025 A 
HETATM    4  C   UNL     1       0.275   4.024   0.000  1.00  0.00     0.009 A 
HETATM    5  C   UNL     1       1.573   3.275   0.000  1.00  0.00     0.058 A 
HETATM    6  C   UNL     1       2.873   4.024   0.000  1.00  0.00     0.105 A 
HETATM    7  C   UNL     1      -1.024   3.275   0.000  1.00  0.00     0.001 C 
HETATM    8  C   UNL     1       4.172   6.274   0.000  1.00  0.00     0.126 C 
HETATM    9  N   UNL     1       4.172   3.275   0.000  1.00  0.00    -0.087 NA
ENDROOT
TORSDOF 0
