REMARK  2 active torsions:
REMARK  status: ('A' for Active; 'I' for Inactive)
REMARK    1  A    between atoms: C_9  and  C_18 
REMARK    2  A    between atoms: C_12  and  C_18 
ROOT
HETATM    1  N   UNL     1       2.272  -4.250   0.000  1.00  0.00    -0.342 N 
HETATM    2  C   UNL     1       5.224  -3.200   0.000  1.00  0.00     0.006 A 
HETATM    3  C   UNL     1       4.912  -4.668   0.000  1.00  0.00    -0.008 A 
HETATM    4  C   UNL     1       6.650  -2.737   0.000  1.00  0.00     0.034 A 
HETATM    5  C   UNL     1       7.765  -3.741   0.000  1.00  0.00     0.006 A 
HETATM    6  C   UNL     1       6.027  -5.671   0.000  1.00  0.00     0.028 A 
HETATM    7  C   UNL     1       3.485  -5.131   0.000  1.00  0.00     0.034 A 
HETATM    8  C   UNL     1       3.022  -6.558   0.000  1.00  0.00     0.069 A 
HETATM    9  C   UNL     1       1.522  -6.558   0.000  1.00  0.00     0.009 A 
HETATM   10  C   UNL     1       1.058  -5.131   0.000  1.00  0.00     0.127 A 
HETATM   11  C   UNL     1       7.453  -5.208   0.000  1.00  0.00     0.005 A 
HETATM   12  C   UNL     1       2.272  -2.750   0.000  1.00  0.00     0.111 A 
HETATM   13  C   UNL     1       0.772  -2.750   0.000  1.00  0.00     0.035 C 
HETATM   14  C   UNL     1       2.272  -1.250   0.000  1.00  0.00     0.035 C 
HETATM   15  C   UNL     1       3.772  -2.750   0.000  1.00  0.00    -0.114 A 
ENDROOT
BRANCH   9  16
HETATM   16  C   UNL     1       0.640  -7.771   0.000  1.00  0.00     0.117 C 
HETATM   17  O   UNL     1      -0.852  -7.615   0.000  1.00  0.00    -0.191 OA
BRANCH  16  18
HETATM   18  C   UNL     1       1.250  -9.142   0.000  1.00  0.00    -0.019 A 
HETATM   19  C   UNL     1       2.742  -9.299   0.000  1.00  0.00     0.024 A 
HETATM   20  C   UNL     1       3.352 -10.669   0.000  1.00  0.00     0.004 A 
HETATM   21  C   UNL     1       2.470 -11.882   0.000  1.00  0.00     0.001 A 
HETATM   22  C   UNL     1       0.979 -11.726   0.000  1.00  0.00     0.004 A 
HETATM   23  C   UNL     1       0.368 -10.355   0.000  1.00  0.00     0.024 A 
ENDBRANCH  16  18
ENDBRANCH   9  16
TORSDOF 2
