REMARK  1 active torsions:
REMARK  status: ('A' for Active; 'I' for Inactive)
REMARK    1  A    between atoms: C_6  and  N_20 
ROOT
HETATM    1  N   UNL     1       4.747   5.218   0.000  1.00  0.00    -0.226 NA
HETATM    2 CL   UNL     1       4.662  11.217   0.000  1.00  0.00    -0.091 Cl
HETATM    3  C   UNL     1       4.683   9.717   0.000  1.00  0.00     0.024 A 
HETATM    4  C   UNL     1       5.993   8.986   0.000  1.00  0.00     0.086 A 
HETATM    5  C   UNL     1       3.395   8.949   0.000  1.00  0.00     0.061 A 
HETATM    6  C   UNL     1       6.014   7.486   0.000  1.00  0.00     0.126 A 
HETATM    7  C   UNL     1       3.417   7.449   0.000  1.00  0.00    -0.002 A 
HETATM    8  C   UNL     1       4.726   6.717   0.000  1.00  0.00     0.097 A 
HETATM    9  C   UNL     1       2.128   6.681   0.000  1.00  0.00    -0.022 A 
HETATM   10  C   UNL     1       0.819   7.412   0.000  1.00  0.00     0.026 A 
HETATM   11  C   UNL     1      -0.470   6.644   0.000  1.00  0.00     0.009 A 
HETATM   12  C   UNL     1       2.150   5.181   0.000  1.00  0.00     0.029 A 
HETATM   13  C   UNL     1      -0.448   5.144   0.000  1.00  0.00     0.029 A 
HETATM   14  C   UNL     1       0.861   4.412   0.000  1.00  0.00     0.004 A 
HETATM   15  C   UNL     1       3.459   4.449   0.000  1.00  0.00     0.158 A 
HETATM   16  N   UNL     1       3.481   2.949   0.000  1.00  0.00    -0.246 NA
HETATM   17  C   UNL     1       2.192   2.181   0.000  1.00  0.00     0.181 A 
HETATM   18  C   UNL     1       0.883   2.912   0.000  1.00  0.00     0.129 A 
HETATM   19  O   UNL     1      -0.406   2.144   0.000  1.00  0.00    -0.193 OA
ENDROOT
BRANCH   6  20
HETATM   20  N   UNL     1       7.324   6.754   0.000  1.00  0.00    -0.116 N 
HETATM   21  O   UNL     1       8.612   7.523   0.000  1.00  0.00    -0.532 OA
HETATM   22  O   UNL     1       7.345   5.255   0.000  1.00  0.00    -0.532 OA
ENDBRANCH   6  20
TORSDOF 1
