REMARK  3 active torsions:
REMARK  status: ('A' for Active; 'I' for Inactive)
REMARK    1  A    between atoms: C_9  and  C_11 
REMARK    2  A    between atoms: C_11  and  C_12 
REMARK    3  A    between atoms: C_12  and  N_13 
ROOT
HETATM    1  H   UNL     1      -2.185  -5.284   0.000  1.00  0.00     0.165 HD
HETATM    2  N   UNL     1      -1.181  -6.399   0.000  1.00  0.00    -0.363 N 
HETATM    3  C   UNL     1      -2.792  -8.616   0.000  1.00  0.00     0.043 A 
HETATM    4  C   UNL     1      -1.493  -7.866   0.000  1.00  0.00     0.025 A 
HETATM    5  C   UNL     1      -2.792 -10.116   0.000  1.00  0.00     0.006 A 
HETATM    6  C   UNL     1      -0.194  -8.616   0.000  1.00  0.00    -0.027 A 
HETATM    7  C   UNL     1      -1.493 -10.866   0.000  1.00  0.00     0.005 A 
HETATM    8  C   UNL     1       0.921  -7.612   0.000  1.00  0.00     0.062 A 
HETATM    9  C   UNL     1       0.311  -6.242   0.000  1.00  0.00     0.017 A 
HETATM   10  C   UNL     1      -0.194 -10.116   0.000  1.00  0.00     0.024 A 
ENDROOT
BRANCH   9  11
HETATM   11  C   UNL     1       1.061  -4.943   0.000  1.00  0.00     0.070 C 
BRANCH  11  12
HETATM   12  C   UNL     1       2.561  -4.943   0.000  1.00  0.00     0.182 C 
BRANCH  12  13
HETATM   13  N   UNL     1       3.311  -3.644   0.000  1.00  0.00    -0.138 N 
HETATM   14  O   UNL     1       4.811  -3.644   0.000  1.00  0.00    -0.536 OA
HETATM   15  O   UNL     1       2.561  -2.345   0.000  1.00  0.00    -0.536 OA
ENDBRANCH  12  13
ENDBRANCH  11  12
ENDBRANCH   9  11
TORSDOF 3
