REMARK  3 active torsions:
REMARK  status: ('A' for Active; 'I' for Inactive)
REMARK    1  A    between atoms: C_4  and  C_16 
REMARK    2  A    between atoms: C_9  and  C_15 
REMARK    3  A    between atoms: C_15  and  C_16 
ROOT
HETATM    1  S   UNL     1      -2.324  -7.024   0.000  1.00  0.00    -0.100 SA
HETATM    2  N   UNL     1      -1.024  -9.274   0.000  1.00  0.00    -0.273 NA
HETATM    3  C   UNL     1      -1.024  -7.774   0.000  1.00  0.00     0.079 A 
HETATM    4  C   UNL     1      -3.623  -7.774   0.000  1.00  0.00     0.065 A 
HETATM    5  C   UNL     1      -3.623  -9.274   0.000  1.00  0.00     0.035 A 
HETATM    6  C   UNL     1      -2.324 -10.024   0.000  1.00  0.00     0.086 A 
HETATM    7  C   UNL     1      -3.288 -11.174   0.000  1.00  0.00     0.024 C 
HETATM    8  C   UNL     1      -1.359 -11.174   0.000  1.00  0.00     0.024 C 
ENDROOT
BRANCH   3   9
HETATM    9  C   UNL     1       0.275  -7.024   0.000  1.00  0.00     0.052 C 
BRANCH   9  10
HETATM   10  C   UNL     1       0.275  -5.524   0.000  1.00  0.00     0.007 C 
BRANCH  10  11
HETATM   11  C   UNL     1       1.574  -4.774   0.000  1.00  0.00     0.000 A 
HETATM   12  C   UNL     1       1.574  -3.275   0.000  1.00  0.00     0.000 A 
HETATM   13  C   UNL     1       2.873  -2.525   0.000  1.00  0.00     0.000 A 
HETATM   14  C   UNL     1       4.172  -3.275   0.000  1.00  0.00     0.000 A 
HETATM   15  C   UNL     1       4.172  -4.774   0.000  1.00  0.00     0.000 A 
HETATM   16  C   UNL     1       2.873  -5.524   0.000  1.00  0.00     0.000 A 
ENDBRANCH  10  11
ENDBRANCH   9  10
ENDBRANCH   3   9
TORSDOF 3
