REMARK  3 active torsions:
REMARK  status: ('A' for Active; 'I' for Inactive)
REMARK    1  A    between atoms: C_6  and  C_17 
REMARK    2  A    between atoms: C_10  and  C_14 
REMARK    3  A    between atoms: C_14  and  C_17 
ROOT
HETATM    1  C   UNL     1      -3.522  -5.899   0.000  1.00  0.00     0.025 C 
HETATM    2  C   UNL     1      -3.522  -4.399   0.000  1.00  0.00     0.016 C 
HETATM    3  N   UNL     1      -3.522  -2.900   0.000  1.00  0.00    -0.096 N 
ENDROOT
BRANCH   1   4
HETATM    4  C   UNL     1      -4.821  -6.649   0.000  1.00  0.00    -0.039 A 
HETATM    5  C   UNL     1      -6.120  -5.899   0.000  1.00  0.00     0.027 A 
HETATM    6  C   UNL     1      -7.419  -6.649   0.000  1.00  0.00     0.033 A 
HETATM    7  C   UNL     1      -7.419  -8.149   0.000  1.00  0.00    -0.009 A 
HETATM    8 BR   UNL     1      -8.718  -8.899   0.000  1.00  0.00    -0.058 Br
HETATM    9  C   UNL     1      -6.120  -8.899   0.000  1.00  0.00     0.033 A 
HETATM   10  C   UNL     1      -4.821  -8.149   0.000  1.00  0.00     0.027 A 
ENDBRANCH   1   4
BRANCH   1  11
HETATM   11  C   UNL     1      -2.223  -6.649   0.000  1.00  0.00     0.037 C 
BRANCH  11  12
HETATM   12  C   UNL     1      -0.924  -5.899   0.000  1.00  0.00     0.029 A 
HETATM   13  C   UNL     1       0.375  -6.649   0.000  1.00  0.00     0.004 A 
HETATM   14  C   UNL     1       1.674  -5.899   0.000  1.00  0.00     0.026 A 
HETATM   15  C   UNL     1       1.674  -4.399   0.000  1.00  0.00     0.120 A 
HETATM   16  N   UNL     1       0.375  -3.650   0.000  1.00  0.00    -0.296 NA
HETATM   17  C   UNL     1      -0.924  -4.399   0.000  1.00  0.00     0.120 A 
ENDBRANCH  11  12
ENDBRANCH   1  11
TORSDOF 3
