REMARK  1 active torsions:
REMARK  status: ('A' for Active; 'I' for Inactive)
REMARK    1  A    between atoms: C_11  and  O_13 
ROOT
HETATM    1  O   UNL     1      -3.883  -1.059   0.000  1.00  0.00    -0.222 OA
HETATM    2  C   UNL     1      -6.481  -1.059   0.000  1.00  0.00     0.055 A 
HETATM    3  C   UNL     1      -5.182  -1.809   0.000  1.00  0.00     0.166 A 
HETATM    4  C   UNL     1      -7.780  -1.809   0.000  1.00  0.00    -0.046 A 
HETATM    5  C   UNL     1      -9.206  -1.345   0.000  1.00  0.00     0.022 A 
HETATM    6  C   UNL     1     -10.088  -2.559   0.000  1.00  0.00     0.009 A 
HETATM    7  C   UNL     1      -5.182  -3.309   0.000  1.00  0.00     0.099 A 
HETATM    8  C   UNL     1      -9.206  -3.772   0.000  1.00  0.00     0.026 A 
HETATM    9  C   UNL     1      -6.481  -4.059   0.000  1.00  0.00     0.027 A 
HETATM   10  C   UNL     1      -7.780  -3.309   0.000  1.00  0.00    -0.030 A 
HETATM   11  C   UNL     1      -6.481  -5.559   0.000  1.00  0.00     0.193 A 
HETATM   12  O   UNL     1      -5.182  -6.309   0.000  1.00  0.00    -0.284 OA
HETATM   13  C   UNL     1      -4.669  -4.718   0.000  1.00  0.00     0.069 A 
HETATM   14  C   UNL     1      -3.191  -4.979   0.000  1.00  0.00     0.127 A 
HETATM   15  C   UNL     1      -2.678  -6.388   0.000  1.00  0.00     0.249 A 
HETATM   16  O   UNL     1      -1.201  -6.649   0.000  1.00  0.00    -0.161 OA
HETATM   17  O   UNL     1      -3.643  -7.537   0.000  1.00  0.00    -0.281 OA
HETATM   18  C   UNL     1      -5.120  -7.277   0.000  1.00  0.00     0.248 A 
HETATM   19  C   UNL     1      -6.084  -8.426   0.000  1.00  0.00     0.068 C 
HETATM   20  C   UNL     1      -3.704  -3.048   0.000  1.00  0.00     0.102 A 
HETATM   21  O   UNL     1      -2.740  -4.197   0.000  1.00  0.00    -0.309 OA
HETATM   22  O   UNL     1      -3.191  -1.639   0.000  1.00  0.00     0.000 OA
HETATM   23  C   UNL     1      -1.714  -1.378   0.000  1.00  0.00     0.000 C 
ENDROOT
BRANCH  11  24
HETATM   24  O   UNL     1      -7.780  -6.309   0.000  1.00  0.00    -0.308 OA
HETATM   25  C   UNL     1      -9.079  -5.559   0.000  1.00  0.00     0.184 C 
ENDBRANCH  11  24
TORSDOF 1
