REMARK  7 active torsions:
REMARK  status: ('A' for Active; 'I' for Inactive)
REMARK    1  A    between atoms: C_4  and  C_21 
REMARK    2  A    between atoms: C_12  and  O_17 
REMARK    3  A    between atoms: C_14  and  C_20 
REMARK    4  A    between atoms: O_17  and  C_18 
REMARK    5  A    between atoms: C_20  and  C_21 
REMARK    6  A    between atoms: N_22  and  C_23 
REMARK    7  A    between atoms: C_23  and  C_24 
ROOT
HETATM    1  C   UNL     1      -6.563   9.632   0.000  1.00  0.00     0.041 C 
ENDROOT
BRANCH   1   2
HETATM    2  C   UNL     1      -7.862  10.382   0.000  1.00  0.00     0.037 A 
HETATM    3  N   UNL     1      -7.862  11.882   0.000  1.00  0.00    -0.259 NA
HETATM    4  C   UNL     1      -9.161  12.632   0.000  1.00  0.00     0.051 A 
HETATM    5  C   UNL     1      -9.161  14.132   0.000  1.00  0.00     0.048 A 
HETATM    6  C   UNL     1     -10.460  11.882   0.000  1.00  0.00    -0.028 A 
HETATM    7  C   UNL     1     -10.460  14.882   0.000  1.00  0.00     0.036 A 
HETATM    8  C   UNL     1     -11.759  14.132   0.000  1.00  0.00     0.120 A 
HETATM    9  C   UNL     1     -11.759  12.632   0.000  1.00  0.00     0.053 A 
HETATM   10  C   UNL     1     -10.460  10.382   0.000  1.00  0.00     0.029 A 
HETATM   11  C   UNL     1      -9.161   9.632   0.000  1.00  0.00     0.046 A 
BRANCH   8  12
HETATM   12  O   UNL     1     -13.059  14.882   0.000  1.00  0.00    -0.356 OA
BRANCH  12  13
HETATM   13  C   UNL     1     -13.059  16.382   0.000  1.00  0.00     0.142 C 
HETATM   14  C   UNL     1     -14.357  17.132   0.000  1.00  0.00     0.035 C 
ENDBRANCH  12  13
ENDBRANCH   8  12
ENDBRANCH   1   2
BRANCH   1  15
HETATM   15  C   UNL     1      -6.563   8.132   0.000  1.00  0.00     0.006 C 
BRANCH  15  16
HETATM   16  C   UNL     1      -5.264   7.382   0.000  1.00  0.00     0.005 A 
HETATM   17  C   UNL     1      -3.965   8.132   0.000  1.00  0.00     0.006 A 
HETATM   18  C   UNL     1      -2.666   7.382   0.000  1.00  0.00     0.043 A 
HETATM   19  C   UNL     1      -2.666   5.882   0.000  1.00  0.00     0.025 A 
HETATM   20  C   UNL     1      -3.965   5.132   0.000  1.00  0.00    -0.033 A 
HETATM   21  N   UNL     1      -1.367   5.132   0.000  1.00  0.00    -0.352 N 
HETATM   22  C   UNL     1      -5.264   5.882   0.000  1.00  0.00     0.023 A 
HETATM   23  C   UNL     1      -3.965   3.632   0.000  1.00  0.00     0.025 A 
HETATM   24  C   UNL     1      -2.666   2.882   0.000  1.00  0.00     0.029 A 
HETATM   25  C   UNL     1      -1.367   3.632   0.000  1.00  0.00     0.101 A 
BRANCH  21  26
HETATM   26  C   UNL     1      -0.068   5.882   0.000  1.00  0.00     0.101 C 
BRANCH  26  27
HETATM   27  C   UNL     1       1.231   5.132   0.000  1.00  0.00     0.024 C 
HETATM   28  C   UNL     1       2.530   5.882   0.000  1.00  0.00     0.002 C 
ENDBRANCH  26  27
ENDBRANCH  21  26
ENDBRANCH  15  16
ENDBRANCH   1  15
TORSDOF 7
