REMARK  2 active torsions:
REMARK  status: ('A' for Active; 'I' for Inactive)
REMARK    1  A    between atoms: C_4  and  N_9 
REMARK    2  A    between atoms: N_9  and  C_10 
ROOT
HETATM    1  O   UNL     1      -3.348  -3.750   0.000  1.00  0.00    -0.312 OA
HETATM    2  C   UNL     1      -0.750  -2.250   0.000  1.00  0.00    -0.049 A 
HETATM    3  C   UNL     1      -3.348  -2.250   0.000  1.00  0.00     0.220 A 
HETATM    4  O   UNL     1      -2.049  -1.500   0.000  1.00  0.00     0.000 OA
HETATM    5  C   UNL     1      -2.049  -4.500   0.000  1.00  0.00     0.155 A 
HETATM    6  C   UNL     1      -0.750  -3.750   0.000  1.00  0.00     0.054 A 
HETATM    7  C   UNL     1      -0.750  -0.750   0.000  1.00  0.00     0.026 A 
ENDROOT
BRANCH   3   8
HETATM    8  N   UNL     1      -4.647  -1.500   0.000  1.00  0.00    -0.228 NA
BRANCH   8   9
HETATM    9  C   UNL     1      -5.946  -2.250   0.000  1.00  0.00     0.039 A 
HETATM   10  C   UNL     1      -7.245  -1.500   0.000  1.00  0.00     0.041 A 
HETATM   11  C   UNL     1      -8.544  -2.250   0.000  1.00  0.00     0.006 A 
HETATM   12  C   UNL     1      -8.544  -3.750   0.000  1.00  0.00     0.001 A 
HETATM   13  C   UNL     1      -7.245  -4.500   0.000  1.00  0.00     0.006 A 
HETATM   14  C   UNL     1      -5.946  -3.750   0.000  1.00  0.00     0.041 A 
ENDBRANCH   8   9
ENDBRANCH   3   8
TORSDOF 2
