REMARK  0 active torsions:
REMARK  status: ('A' for Active; 'I' for Inactive)
ROOT
HETATM    1  N   UNL     1      -5.766   1.176   0.000  1.00  0.00    -0.265 NA
HETATM    2  S   UNL     1      -3.041   0.890   0.000  1.00  0.00    -0.090 SA
HETATM    3 BR   UNL     1      -2.577  -2.964   0.000  1.00  0.00    -0.053 Br
HETATM    4  C   UNL     1      -2.159  -0.324   0.000  1.00  0.00     0.096 A 
HETATM    5  C   UNL     1      -3.041  -1.538   0.000  1.00  0.00     0.022 A 
HETATM    6  C   UNL     1      -4.467  -1.074   0.000  1.00  0.00     0.004 A 
HETATM    7  C   UNL     1      -4.467   0.426   0.000  1.00  0.00     0.098 A 
HETATM    8  C   UNL     1      -5.766  -1.824   0.000  1.00  0.00     0.031 A 
HETATM    9  C   UNL     1      -7.066  -1.074   0.000  1.00  0.00     0.031 A 
HETATM   10  C   UNL     1      -7.066   0.426   0.000  1.00  0.00     0.127 A 
ENDROOT
TORSDOF 0
