REMARK  2 active torsions:
REMARK  status: ('A' for Active; 'I' for Inactive)
REMARK    1  A    between atoms: C_4  and  C_17 
REMARK    2  A    between atoms: C_15  and  C_17 
ROOT
HETATM    1  N   UNL     1      -7.531   1.589   0.000  1.00  0.00    -0.331 N 
HETATM    2  C   UNL     1     -10.257   1.875   0.000  1.00  0.00     0.043 A 
HETATM    3  C   UNL     1     -11.556   1.125   0.000  1.00  0.00     0.006 A 
HETATM    4  C   UNL     1      -8.958   1.125   0.000  1.00  0.00     0.029 A 
HETATM    5  C   UNL     1      -8.958  -0.375   0.000  1.00  0.00    -0.027 A 
HETATM    6  C   UNL     1     -11.556  -0.375   0.000  1.00  0.00     0.005 A 
HETATM    7  C   UNL     1     -10.257  -1.125   0.000  1.00  0.00     0.024 A 
HETATM    8  C   UNL     1      -7.531  -0.839   0.000  1.00  0.00     0.069 A 
HETATM    9  C   UNL     1      -6.649   0.375   0.000  1.00  0.00     0.066 A 
HETATM   10  C   UNL     1      -7.068   3.015   0.000  1.00  0.00     0.130 C 
ENDROOT
BRANCH   9  11
HETATM   11  C   UNL     1      -5.149   0.375   0.000  1.00  0.00     0.135 C 
HETATM   12  O   UNL     1      -4.399   1.674   0.000  1.00  0.00    -0.190 OA
BRANCH  11  13
HETATM   13  C   UNL     1      -4.399  -0.924   0.000  1.00  0.00    -0.014 A 
HETATM   14  C   UNL     1      -2.900  -0.924   0.000  1.00  0.00     0.050 A 
HETATM   15  C   UNL     1      -2.150  -2.223   0.000  1.00  0.00     0.124 A 
HETATM   16  N   UNL     1      -2.900  -3.522   0.000  1.00  0.00    -0.295 NA
HETATM   17  C   UNL     1      -4.399  -3.522   0.000  1.00  0.00     0.124 A 
HETATM   18  C   UNL     1      -5.149  -2.223   0.000  1.00  0.00     0.050 A 
ENDBRANCH  11  13
ENDBRANCH   9  11
TORSDOF 2
