REMARK  4 active torsions:
REMARK  status: ('A' for Active; 'I' for Inactive)
REMARK    1  A    between atoms: C_1  and  O_6 
REMARK    2  A    between atoms: C_2  and  O_3 
REMARK    3  A    between atoms: O_3  and  C_8 
REMARK    4  A    between atoms: O_6  and  C_10 
ROOT
HETATM    1  C   UNL     1       0.617   1.065   0.000  1.00  0.00     0.446 A 
HETATM    2  C   UNL     1      -0.935  -0.800   0.000  1.00  0.00     0.471 A 
HETATM    3  N   UNL     1      -0.837   0.696   0.000  1.00  0.00     0.428 N 
HETATM    4  N   UNL     1       0.458  -1.357   0.000  1.00  0.00    -0.098 NA
HETATM    5  S   UNL     1       1.417  -0.203   0.000  1.00  0.00     0.021 SA
ENDROOT
BRANCH   1   6
HETATM    6  O   UNL     1       1.173   2.459   0.000  1.00  0.00    -0.318 OA
BRANCH   6   7
HETATM    7  C   UNL     1       2.657   2.674   0.000  1.00  0.00     0.145 C 
HETATM    8  C   UNL     1       3.213   4.067   0.000  1.00  0.00     0.035 C 
ENDBRANCH   6   7
ENDBRANCH   1   6
BRANCH   2   9
HETATM    9  O   UNL     1      -2.204  -1.601   0.000  1.00  0.00    -0.313 OA
BRANCH   9  10
HETATM   10  C   UNL     1      -2.145  -3.100   0.000  1.00  0.00     0.146 C 
HETATM   11  C   UNL     1      -3.414  -3.900   0.000  1.00  0.00     0.035 C 
ENDBRANCH   9  10
ENDBRANCH   2   9
TORSDOF 4
