REMARK  5 active torsions:
REMARK  status: ('A' for Active; 'I' for Inactive)
REMARK    1  A    between atoms: N_1  and  C_11 
REMARK    2  A    between atoms: N_1  and  N_2 
REMARK    3  A    between atoms: N_2  and  C_4 
REMARK    4  A    between atoms: C_7  and  C_18 
REMARK    5  A    between atoms: C_10  and  O_15 
ROOT
HETATM    1  N   UNL     1      -2.324  -5.524   0.000  1.00  0.00    -0.157 NA
ENDROOT
BRANCH   1   2
HETATM    2  C   UNL     1      -3.623  -4.774   0.000  1.00  0.00     0.065 A 
HETATM    3  C   UNL     1      -3.623  -3.275   0.000  1.00  0.00     0.096 A 
HETATM    4  C   UNL     1      -4.922  -2.525   0.000  1.00  0.00     0.099 A 
HETATM    5  C   UNL     1      -6.221  -3.275   0.000  1.00  0.00     0.127 A 
HETATM    6  C   UNL     1      -6.221  -4.774   0.000  1.00  0.00     0.062 A 
HETATM    7  O   UNL     1      -7.520  -2.525   0.000  1.00  0.00    -0.193 OA
HETATM    8  C   UNL     1      -4.922  -5.524   0.000  1.00  0.00     0.051 A 
BRANCH   4   9
HETATM    9  O   UNL     1      -4.922  -1.024   0.000  1.00  0.00    -0.330 OA
HETATM   10  C   UNL     1      -6.221  -0.275   0.000  1.00  0.00     0.181 C 
ENDBRANCH   4   9
ENDBRANCH   1   2
BRANCH   1  11
HETATM   11  N   UNL     1      -2.324  -7.024   0.000  1.00  0.00    -0.153 NA
BRANCH  11  12
HETATM   12  C   UNL     1      -1.024  -7.774   0.000  1.00  0.00     0.082 A 
HETATM   13  C   UNL     1       0.275  -7.024   0.000  1.00  0.00     0.048 A 
HETATM   14  C   UNL     1       1.574  -7.774   0.000  1.00  0.00     0.007 A 
HETATM   15  C   UNL     1       1.574  -9.274   0.000  1.00  0.00     0.005 A 
HETATM   16  C   UNL     1       0.275 -10.024   0.000  1.00  0.00     0.034 A 
HETATM   17  C   UNL     1      -1.024  -9.274   0.000  1.00  0.00     0.057 A 
BRANCH  17  18
HETATM   18  C   UNL     1      -2.324 -10.024   0.000  1.00  0.00     0.208 C 
HETATM   19  O   UNL     1      -3.623  -9.274   0.000  1.00  0.00    -0.644 OA
HETATM   20  O   UNL     1      -2.324 -11.524   0.000  1.00  0.00    -0.644 OA
ENDBRANCH  17  18
ENDBRANCH  11  12
ENDBRANCH   1  11
TORSDOF 5
