REMARK  2 active torsions:
REMARK  status: ('A' for Active; 'I' for Inactive)
REMARK    1  A    between atoms: N_3  and  C_11 
REMARK    2  A    between atoms: C_13  and  O_22 
ROOT
HETATM    1  S   UNL     1      -8.513  -2.898   0.000  1.00  0.00    -0.085 SA
HETATM    2  O   UNL     1      -3.689  -0.750   0.000  1.00  0.00    -0.169 OA
HETATM    3  N   UNL     1      -4.647  -3.245   0.000  1.00  0.00    -0.265 N 
HETATM    4  O   UNL     1      -6.329  -5.323   0.000  1.00  0.00    -0.170 OA
HETATM    5  C   UNL     1      -4.804  -1.754   0.000  1.00  0.00     0.218 A 
HETATM    6  C   UNL     1      -6.271  -1.442   0.000  1.00  0.00     0.133 A 
HETATM    7  C   UNL     1      -7.021  -2.741   0.000  1.00  0.00     0.093 A 
HETATM    8  C   UNL     1      -6.017  -3.856   0.000  1.00  0.00     0.207 A 
HETATM    9  C   UNL     1      -9.395  -1.684   0.000  1.00  0.00     0.021 A 
HETATM   10  C   UNL     1     -10.886  -1.841   0.000  1.00  0.00     0.034 A 
HETATM   11  C   UNL     1      -8.784  -0.314   0.000  1.00  0.00     0.061 A 
HETATM   12  C   UNL     1      -9.666   0.900   0.000  1.00  0.00     0.046 A 
HETATM   13  C   UNL     1     -11.768  -0.627   0.000  1.00  0.00     0.006 A 
HETATM   14  C   UNL     1     -11.158   0.743   0.000  1.00  0.00     0.007 A 
HETATM   15  N   UNL     1      -7.293  -0.157   0.000  1.00  0.00    -0.245 NA
ENDROOT
BRANCH   3  16
HETATM   16  C   UNL     1      -3.348  -3.995   0.000  1.00  0.00     0.063 A 
HETATM   17  C   UNL     1      -2.049  -3.245   0.000  1.00  0.00     0.046 A 
HETATM   18  C   UNL     1      -0.750  -3.995   0.000  1.00  0.00     0.007 A 
HETATM   19  C   UNL     1      -0.750  -5.495   0.000  1.00  0.00     0.007 A 
HETATM   20  C   UNL     1      -2.049  -6.245   0.000  1.00  0.00     0.052 A 
HETATM   21  C   UNL     1      -3.348  -5.495   0.000  1.00  0.00     0.084 A 
BRANCH  21  22
HETATM   22  O   UNL     1      -4.647  -6.245   0.000  1.00  0.00    -0.331 OA
HETATM   23  C   UNL     1      -4.647  -7.745   0.000  1.00  0.00     0.181 C 
ENDBRANCH  21  22
ENDBRANCH   3  16
TORSDOF 2
