REMARK  2 active torsions:
REMARK  status: ('A' for Active; 'I' for Inactive)
REMARK    1  A    between atoms: C_6  and  C_17 
REMARK    2  A    between atoms: C_10  and  C_17 
ROOT
HETATM    1  O   UNL     1      -2.028   2.605   0.000  1.00  0.00    -0.191 OA
HETATM    2  C   UNL     1      -1.649   1.153   0.000  1.00  0.00     0.125 A 
HETATM    3  C   UNL     1      -2.600  -0.007   0.000  1.00  0.00    -0.005 A 
HETATM    4  C   UNL     1      -0.252   0.607   0.000  1.00  0.00     0.032 A 
HETATM    5  C   UNL     1      -4.099  -0.076   0.000  1.00  0.00     0.028 A 
HETATM    6  C   UNL     1      -4.788  -1.408   0.000  1.00  0.00     0.005 A 
HETATM    7  C   UNL     1      -0.340  -0.890   0.000  1.00  0.00     0.052 A 
HETATM    8  C   UNL     1      -1.791  -1.270   0.000  1.00  0.00    -0.042 A 
HETATM    9  C   UNL     1      -3.979  -2.671   0.000  1.00  0.00     0.005 A 
HETATM   10  C   UNL     1      -2.480  -2.602   0.000  1.00  0.00     0.022 A 
ENDROOT
BRANCH   4  11
HETATM   11  C   UNL     1       1.011   1.416   0.000  1.00  0.00     0.123 C 
HETATM   12  O   UNL     1       0.942   2.915   0.000  1.00  0.00    -0.191 OA
BRANCH  11  13
HETATM   13  C   UNL     1       2.343   0.727   0.000  1.00  0.00     0.005 A 
HETATM   14  C   UNL     1       2.413  -0.771   0.000  1.00  0.00     0.028 A 
HETATM   15  C   UNL     1       3.745  -1.460   0.000  1.00  0.00     0.030 A 
HETATM   16  C   UNL     1       5.008  -0.651   0.000  1.00  0.00     0.121 A 
HETATM   17  N   UNL     1       4.939   0.847   0.000  1.00  0.00    -0.291 NA
HETATM   18  C   UNL     1       3.606   1.536   0.000  1.00  0.00     0.144 A 
ENDBRANCH  11  13
ENDBRANCH   4  11
TORSDOF 2
