REMARK  0 active torsions:
REMARK  status: ('A' for Active; 'I' for Inactive)
ROOT
HETATM    1  S   UNL     1      -4.717  -3.494   0.000  1.00  0.00    -0.074 SA
HETATM    2  N   UNL     1      -1.991  -3.207   0.000  1.00  0.00    -0.337 N 
HETATM    3  H   UNL     1      -1.991  -1.707   0.000  1.00  0.00     0.168 HD
HETATM    4  O   UNL     1      -1.991  -7.707   0.000  1.00  0.00    -0.169 OA
HETATM    5  N   UNL     1      -0.692  -5.457   0.000  1.00  0.00    -0.207 NA
HETATM    6  C   UNL     1      -7.090  -4.864   0.000  1.00  0.00     0.033 A 
HETATM    7  C   UNL     1      -5.598  -4.707   0.000  1.00  0.00     0.005 A 
HETATM    8  C   UNL     1      -7.700  -6.235   0.000  1.00  0.00     0.005 A 
HETATM    9  C   UNL     1      -4.717  -5.921   0.000  1.00  0.00    -0.015 A 
HETATM   10  C   UNL     1      -6.819  -7.448   0.000  1.00  0.00     0.005 A 
HETATM   11  C   UNL     1      -5.327  -7.291   0.000  1.00  0.00     0.027 A 
HETATM   12  C   UNL     1      -3.290  -5.457   0.000  1.00  0.00     0.062 A 
HETATM   13  C   UNL     1      -3.290  -3.957   0.000  1.00  0.00     0.091 A 
HETATM   14  C   UNL     1      -1.991  -6.207   0.000  1.00  0.00     0.215 A 
HETATM   15  C   UNL     1      -0.692  -3.957   0.000  1.00  0.00     0.120 A 
HETATM   16  C   UNL     1       0.607  -3.207   0.000  1.00  0.00     0.072 C 
ENDROOT
TORSDOF 0
