REMARK  4 active torsions:
REMARK  status: ('A' for Active; 'I' for Inactive)
REMARK    1  A    between atoms: C_3  and  N_20 
REMARK    2  A    between atoms: C_8  and  N_20 
REMARK    3  A    between atoms: C_10  and  N_17 
REMARK    4  A    between atoms: C_11  and  S_14 
ROOT
HETATM    1  C   UNL     1      -1.574   7.774   0.000  1.00  0.00     0.048 A 
HETATM    2  C   UNL     1      -0.275   7.024   0.000  1.00  0.00     0.076 A 
HETATM    3  C   UNL     1      -2.873   7.024   0.000  1.00  0.00     0.025 A 
HETATM    4  C   UNL     1      -0.275   5.524   0.000  1.00  0.00     0.119 A 
HETATM    5  C   UNL     1      -2.873   5.524   0.000  1.00  0.00     0.138 A 
HETATM    6  C   UNL     1      -1.574   4.774   0.000  1.00  0.00     0.070 A 
ENDROOT
BRANCH   2   7
HETATM    7  N   UNL     1       1.024   7.774   0.000  1.00  0.00    -0.257 NA
BRANCH   7   8
HETATM    8  C   UNL     1       1.024   9.274   0.000  1.00  0.00     0.036 A 
HETATM    9  C   UNL     1      -0.275  10.024   0.000  1.00  0.00     0.041 A 
HETATM   10  C   UNL     1      -0.275  11.524   0.000  1.00  0.00     0.006 A 
HETATM   11  C   UNL     1       1.024  12.274   0.000  1.00  0.00     0.001 A 
HETATM   12  C   UNL     1       2.324  11.524   0.000  1.00  0.00     0.006 A 
HETATM   13  C   UNL     1       2.324  10.024   0.000  1.00  0.00     0.041 A 
ENDBRANCH   7   8
ENDBRANCH   2   7
BRANCH   4  14
HETATM   14  N   UNL     1       1.024   4.774   0.000  1.00  0.00    -0.117 N 
HETATM   15  O   UNL     1       2.324   5.524   0.000  1.00  0.00    -0.532 OA
HETATM   16  O   UNL     1       1.024   3.275   0.000  1.00  0.00    -0.532 OA
ENDBRANCH   4  14
BRANCH   5  17
HETATM   17  S   UNL     1      -4.172   4.774   0.000  1.00  0.00     0.281 S 
HETATM   18  N   UNL     1      -4.922   6.074   0.000  1.00  0.00    -0.047 N 
HETATM   19  O   UNL     1      -5.471   4.024   0.000  1.00  0.00    -0.201 OA
HETATM   20  O   UNL     1      -3.422   3.475   0.000  1.00  0.00    -0.201 OA
ENDBRANCH   5  17
TORSDOF 4
