REMARK  2 active torsions:
REMARK  status: ('A' for Active; 'I' for Inactive)
REMARK    1  A    between atoms: C_3  and  N_17 
REMARK    2  A    between atoms: C_9  and  N_14 
REMARK       I    between atoms: N_14  and  C_15 
REMARK       I    between atoms: C_15  and  N_17 
ROOT
HETATM    1  N   UNL     1       4.272  -0.101   0.000  1.00  0.00    -0.212 NA
HETATM    2  C   UNL     1       5.571  -0.851   0.000  1.00  0.00     0.299 C 
HETATM    3  O   UNL     1       5.571  -2.350   0.000  1.00  0.00    -0.147 OA
HETATM    4  N   UNL     1       6.870  -0.101   0.000  1.00  0.00    -0.212 NA
ENDROOT
BRANCH   1   5
HETATM    5  C   UNL     1       4.272   1.399   0.000  1.00  0.00     0.041 A 
HETATM    6  C   UNL     1       5.571   2.150   0.000  1.00  0.00     0.044 A 
HETATM    7  C   UNL     1       5.571   3.650   0.000  1.00  0.00     0.045 A 
HETATM    8  C   UNL     1       4.272   4.399   0.000  1.00  0.00     0.303 A 
HETATM    9  C   UNL     1       2.973   3.650   0.000  1.00  0.00     0.045 A 
HETATM   10  N   UNL     1       4.272   5.899   0.000  1.00  0.00     0.616 N 
HETATM   11  C   UNL     1       2.973   2.150   0.000  1.00  0.00     0.044 A 
ENDBRANCH   1   5
BRANCH   4  12
HETATM   12  C   UNL     1       8.169  -0.851   0.000  1.00  0.00     0.041 A 
HETATM   13  C   UNL     1       9.468  -0.101   0.000  1.00  0.00     0.044 A 
HETATM   14  C   UNL     1      10.767  -0.851   0.000  1.00  0.00     0.045 A 
HETATM   15  C   UNL     1      10.767  -2.350   0.000  1.00  0.00     0.303 A 
HETATM   16  C   UNL     1       9.468  -3.100   0.000  1.00  0.00     0.045 A 
HETATM   17  N   UNL     1      12.066  -3.100   0.000  1.00  0.00     0.616 N 
HETATM   18  C   UNL     1       8.169  -2.350   0.000  1.00  0.00     0.044 A 
ENDBRANCH   4  12
TORSDOF 2
