REMARK  2 active torsions:
REMARK  status: ('A' for Active; 'I' for Inactive)
REMARK    1  A    between atoms: C_6  and  N_16 
REMARK    2  A    between atoms: C_9  and  C_13 
REMARK       I    between atoms: C_13  and  N_16 
ROOT
HETATM    1  C   UNL     1      -6.870   1.601   0.000  1.00  0.00     0.204 C 
HETATM    2  O   UNL     1      -6.870   3.100   0.000  1.00  0.00    -0.170 OA
HETATM    3  N   UNL     1      -8.169   0.851   0.000  1.00  0.00    -0.229 NA
ENDROOT
BRANCH   1   4
HETATM    4  C   UNL     1      -5.571   0.851   0.000  1.00  0.00    -0.000 A 
HETATM    5  C   UNL     1      -4.272   1.601   0.000  1.00  0.00     0.028 A 
HETATM    6  C   UNL     1      -2.973   0.851   0.000  1.00  0.00     0.043 A 
HETATM    7  C   UNL     1      -2.973  -0.649   0.000  1.00  0.00     0.303 A 
HETATM    8  C   UNL     1      -4.272  -1.399   0.000  1.00  0.00     0.043 A 
HETATM    9  N   UNL     1      -1.674  -1.399   0.000  1.00  0.00     0.616 N 
HETATM   10  C   UNL     1      -5.571  -0.649   0.000  1.00  0.00     0.028 A 
ENDBRANCH   1   4
BRANCH   3  11
HETATM   11  C   UNL     1      -9.468   1.601   0.000  1.00  0.00     0.041 A 
HETATM   12  C   UNL     1      -9.468   3.100   0.000  1.00  0.00     0.080 A 
HETATM   13  C   UNL     1     -10.767   3.850   0.000  1.00  0.00     0.307 A 
HETATM   14  C   UNL     1     -12.066   3.100   0.000  1.00  0.00     0.040 A 
HETATM   15  N   UNL     1     -10.767   5.351   0.000  1.00  0.00     0.616 N 
HETATM   16  C   UNL     1     -12.066   1.601   0.000  1.00  0.00     0.008 A 
HETATM   17  C   UNL     1     -10.767   0.851   0.000  1.00  0.00     0.042 A 
ENDBRANCH   3  11
TORSDOF 2
