REMARK  2 active torsions:
REMARK  status: ('A' for Active; 'I' for Inactive)
REMARK    1  A    between atoms: C_3  and  N_17 
REMARK    2  A    between atoms: C_9  and  N_17 
ROOT
HETATM    1  C   UNL     1      -0.375  -8.149   0.000  1.00  0.00     0.063 A 
HETATM    2  C   UNL     1      -1.674  -8.899   0.000  1.00  0.00    -0.046 A 
HETATM    3  C   UNL     1       0.924  -8.899   0.000  1.00  0.00     0.040 A 
HETATM    4  C   UNL     1      -2.973  -8.149   0.000  1.00  0.00     0.022 A 
HETATM    5  C   UNL     1      -4.272  -8.899   0.000  1.00  0.00     0.005 A 
HETATM    6  C   UNL     1       0.924 -10.399   0.000  1.00  0.00     0.046 A 
HETATM    7  C   UNL     1      -1.674 -10.399   0.000  1.00  0.00    -0.051 A 
HETATM    8  C   UNL     1      -4.272 -10.399   0.000  1.00  0.00     0.005 A 
HETATM    9  C   UNL     1      -0.375 -11.149   0.000  1.00  0.00     0.027 A 
HETATM   10  C   UNL     1      -2.973 -11.149   0.000  1.00  0.00     0.021 A 
ENDROOT
BRANCH   3  11
HETATM   11  N   UNL     1       2.223  -8.149   0.000  1.00  0.00    -0.262 NA
BRANCH  11  12
HETATM   12  C   UNL     1       2.223  -6.649   0.000  1.00  0.00     0.036 A 
HETATM   13  C   UNL     1       0.924  -5.899   0.000  1.00  0.00     0.044 A 
HETATM   14  C   UNL     1       0.924  -4.399   0.000  1.00  0.00     0.039 A 
HETATM   15  C   UNL     1       2.223  -3.650   0.000  1.00  0.00     0.153 A 
HETATM   16  C   UNL     1       3.522  -4.399   0.000  1.00  0.00     0.039 A 
HETATM   17  O   UNL     1       2.223  -2.150   0.000  1.00  0.00    -0.223 OA
HETATM   18  C   UNL     1       3.522  -5.899   0.000  1.00  0.00     0.044 A 
ENDBRANCH  11  12
ENDBRANCH   3  11
TORSDOF 2
