REMARK  3 active torsions:
REMARK  status: ('A' for Active; 'I' for Inactive)
REMARK    1  A    between atoms: C_3  and  N_19 
REMARK    2  A    between atoms: C_8  and  N_15 
REMARK    3  A    between atoms: C_10  and  C_13 
REMARK       I    between atoms: N_15  and  C_16 
REMARK       I    between atoms: C_16  and  N_19 
ROOT
HETATM    1  N   UNL     1       4.922  -2.525   0.000  1.00  0.00    -0.208 NA
HETATM    2  C   UNL     1       6.221  -3.275   0.000  1.00  0.00     0.299 C 
HETATM    3  O   UNL     1       7.520  -2.525   0.000  1.00  0.00    -0.147 OA
HETATM    4  N   UNL     1       6.221  -4.774   0.000  1.00  0.00    -0.212 NA
ENDROOT
BRANCH   1   5
HETATM    5  C   UNL     1       4.922  -1.024   0.000  1.00  0.00     0.062 A 
HETATM    6  C   UNL     1       6.221  -0.275   0.000  1.00  0.00     0.046 A 
HETATM    7  C   UNL     1       6.221   1.226   0.000  1.00  0.00     0.007 A 
HETATM    8  C   UNL     1       4.922   1.976   0.000  1.00  0.00     0.005 A 
HETATM    9  C   UNL     1       3.623   1.226   0.000  1.00  0.00     0.031 A 
HETATM   10  C   UNL     1       3.623  -0.275   0.000  1.00  0.00     0.030 A 
BRANCH  10  11
HETATM   11  C   UNL     1       2.324  -1.024   0.000  1.00  0.00     0.197 C 
HETATM   12  O   UNL     1       2.324  -2.525   0.000  1.00  0.00    -0.175 OA
HETATM   13  N   UNL     1       1.024  -0.275   0.000  1.00  0.00    -0.071 NA
ENDBRANCH  10  11
ENDBRANCH   1   5
BRANCH   4  14
HETATM   14  C   UNL     1       7.520  -5.524   0.000  1.00  0.00     0.041 A 
HETATM   15  C   UNL     1       8.819  -4.774   0.000  1.00  0.00     0.042 A 
HETATM   16  C   UNL     1      10.118  -5.524   0.000  1.00  0.00     0.006 A 
HETATM   17  C   UNL     1      10.118  -7.024   0.000  1.00  0.00     0.001 A 
HETATM   18  C   UNL     1       8.819  -7.774   0.000  1.00  0.00     0.006 A 
HETATM   19  C   UNL     1      11.417  -7.774   0.000  1.00  0.00     0.000 C 
HETATM   20  C   UNL     1       7.520  -7.024   0.000  1.00  0.00     0.042 A 
ENDBRANCH   4  14
TORSDOF 3
