REMARK  0 active torsions:
REMARK  status: ('A' for Active; 'I' for Inactive)
ROOT
HETATM    1 CL   UNL     1      -2.973  -6.649   0.000  1.00  0.00    -0.079 Cl
HETATM    2 CL   UNL     1      -2.973  -9.649   0.000  1.00  0.00    -0.059 Cl
HETATM    3  N   UNL     1      -0.375  -9.649   0.000  1.00  0.00    -0.134 NA
HETATM    4 CL   UNL     1      -0.375  -5.149   0.000  1.00  0.00    -0.139 Cl
HETATM    5  N   UNL     1       0.924  -8.899   0.000  1.00  0.00    -0.127 NA
HETATM    6  C   UNL     1      -0.375  -6.649   0.000  1.00  0.00     0.097 A 
HETATM    7  C   UNL     1      -1.674  -7.399   0.000  1.00  0.00     0.101 A 
HETATM    8  C   UNL     1       0.924  -7.399   0.000  1.00  0.00     0.194 A 
HETATM    9  C   UNL     1      -1.674  -8.899   0.000  1.00  0.00     0.171 A 
HETATM   10  C   UNL     1       0.924  -4.399   0.000  1.00  0.00     0.039 A 
HETATM   11  C   UNL     1       2.223  -5.149   0.000  1.00  0.00     0.067 A 
HETATM   12  C   UNL     1       0.924  -2.900   0.000  1.00  0.00     0.038 A 
HETATM   13  C   UNL     1       2.223  -2.150   0.000  1.00  0.00     0.006 A 
HETATM   14  C   UNL     1       3.522  -4.399   0.000  1.00  0.00     0.046 A 
HETATM   15  C   UNL     1       3.522  -2.900   0.000  1.00  0.00     0.007 A 
HETATM   16  N   UNL     1       2.223  -6.649   0.000  1.00  0.00    -0.229 NA
ENDROOT
TORSDOF 0
