REMARK  1 active torsions:
REMARK  status: ('A' for Active; 'I' for Inactive)
REMARK    1  A    between atoms: N_5  and  C_8 
ROOT
HETATM    1  C   UNL     1       3.567   2.252   0.000  1.00  0.00    -0.020 A 
HETATM    2  O   UNL     1       1.465   0.725   0.000  1.00  0.00    -0.345 OA
HETATM    3  O   UNL     1       4.589   0.967   0.000  1.00  0.00     0.000 OA
HETATM    4  O   UNL     1       7.171   1.659   0.000  1.00  0.00    -0.167 OA
HETATM    5  N   UNL     1       6.213  -0.837   0.000  1.00  0.00    -0.307 N 
HETATM    6  C   UNL     1       6.056   0.655   0.000  1.00  0.00     0.237 A 
HETATM    7  C   UNL     1       4.843  -1.447   0.000  1.00  0.00     0.132 A 
HETATM    8  C   UNL     1       3.839  -0.332   0.000  1.00  0.00     0.004 A 
HETATM    9  C   UNL     1       5.059   2.408   0.000  1.00  0.00     0.028 C 
HETATM   10  C   UNL     1       2.075   2.095   0.000  1.00  0.00     0.165 A 
HETATM   11  C   UNL     1       2.347  -0.489   0.000  1.00  0.00     0.166 A 
ENDROOT
BRANCH   5  12
HETATM   12  C   UNL     1       7.512  -1.587   0.000  1.00  0.00     0.017 A 
HETATM   13  C   UNL     1       8.811  -0.837   0.000  1.00  0.00     0.039 A 
HETATM   14  C   UNL     1      10.110  -1.587   0.000  1.00  0.00     0.006 A 
HETATM   15  C   UNL     1      10.110  -3.087   0.000  1.00  0.00     0.001 A 
HETATM   16  C   UNL     1       8.811  -3.837   0.000  1.00  0.00     0.006 A 
HETATM   17  C   UNL     1       7.512  -3.087   0.000  1.00  0.00     0.039 A 
ENDBRANCH   5  12
TORSDOF 1
