REMARK  0 active torsions:
REMARK  status: ('A' for Active; 'I' for Inactive)
ROOT
HETATM    1  N   UNL     1       2.049   3.000   0.000  1.00  0.00    -0.160 NA
HETATM    2  C   UNL     1       2.049   1.500   0.000  1.00  0.00     0.306 A 
HETATM    3  C   UNL     1       3.348   3.750   0.000  1.00  0.00     0.302 A 
HETATM    4  N   UNL     1       3.348   0.750   0.000  1.00  0.00    -0.167 NA
HETATM    5  C   UNL     1       4.647   1.500   0.000  1.00  0.00     0.251 A 
HETATM    6  N   UNL     1       4.647   3.000   0.000  1.00  0.00    -0.182 N 
HETATM    7  N   UNL     1       6.074   3.463   0.000  1.00  0.00    -0.085 NA
HETATM    8  N   UNL     1       6.074   1.036   0.000  1.00  0.00    -0.215 NA
HETATM    9  C   UNL     1       6.955   2.250   0.000  1.00  0.00     0.242 A 
HETATM   10  O   UNL     1       0.750   0.750   0.000  1.00  0.00    -0.147 OA
HETATM   11  O   UNL     1       3.348   5.250   0.000  1.00  0.00    -0.147 OA
ENDROOT
TORSDOF 0
