REMARK  4 active torsions:
REMARK  status: ('A' for Active; 'I' for Inactive)
REMARK    1  A    between atoms: C_8  and  C_9 
REMARK    2  A    between atoms: C_16  and  C_24 
REMARK    3  A    between atoms: C_18  and  C_23 
REMARK    4  A    between atoms: C_23  and  C_24 
ROOT
HETATM    1  N   UNL     1       4.922  -2.525   0.000  1.00  0.00    -0.219 NA
HETATM    2  N   UNL     1       3.623  -4.774   0.000  1.00  0.00    -0.219 NA
HETATM    3 CL   UNL     1       7.520  -2.525   0.000  1.00  0.00    -0.061 Cl
HETATM    4 CL   UNL     1       4.922  -7.024   0.000  1.00  0.00    -0.061 Cl
HETATM    5  C   UNL     1       6.221  -3.275   0.000  1.00  0.00     0.141 A 
HETATM    6  C   UNL     1       6.221  -4.774   0.000  1.00  0.00     0.049 A 
HETATM    7  C   UNL     1       4.922  -5.524   0.000  1.00  0.00     0.141 A 
HETATM    8  C   UNL     1       3.623  -3.275   0.000  1.00  0.00     0.141 A 
ENDROOT
BRANCH   8   9
HETATM    9  C   UNL     1       2.324  -2.525   0.000  1.00  0.00     0.066 C 
BRANCH   9  10
HETATM   10  C   UNL     1       2.324  -1.024   0.000  1.00  0.00     0.008 C 
BRANCH  10  11
HETATM   11  C   UNL     1       1.024  -0.275   0.000  1.00  0.00     0.001 A 
HETATM   12  C   UNL     1       1.024   1.226   0.000  1.00  0.00     0.005 A 
HETATM   13  C   UNL     1      -0.275   1.976   0.000  1.00  0.00     0.034 A 
HETATM   14  C   UNL     1      -1.574   1.226   0.000  1.00  0.00     0.013 A 
HETATM   15 CL   UNL     1      -2.873   1.976   0.000  1.00  0.00    -0.092 Cl
HETATM   16  C   UNL     1      -1.574  -0.275   0.000  1.00  0.00     0.034 A 
HETATM   17  C   UNL     1      -0.275  -1.024   0.000  1.00  0.00     0.005 A 
ENDBRANCH  10  11
ENDBRANCH   9  10
ENDBRANCH   8   9
BRANCH   6  18
HETATM   18  C   UNL     1       7.520  -5.524   0.000  1.00  0.00    -0.039 A 
HETATM   19  C   UNL     1       7.520  -7.024   0.000  1.00  0.00     0.027 A 
HETATM   20  C   UNL     1       8.819  -7.774   0.000  1.00  0.00     0.038 A 
HETATM   21  C   UNL     1      10.118  -7.024   0.000  1.00  0.00     0.014 A 
HETATM   22 CL   UNL     1      11.417  -7.774   0.000  1.00  0.00    -0.092 Cl
HETATM   23  C   UNL     1      10.118  -5.524   0.000  1.00  0.00     0.038 A 
HETATM   24  C   UNL     1       8.819  -4.774   0.000  1.00  0.00     0.027 A 
ENDBRANCH   6  18
TORSDOF 4
