REMARK  2 active torsions:
REMARK  status: ('A' for Active; 'I' for Inactive)
REMARK    1  A    between atoms: C_5  and  C_10 
REMARK    2  A    between atoms: C_7  and  C_13 
ROOT
HETATM    1  N   UNL     1      -6.132   1.226   0.000  1.00  0.00    -0.065 NA
HETATM    2  N   UNL     1      -4.833  -1.024   0.000  1.00  0.00    -0.085 N 
HETATM    3  N   UNL     1      -3.406   0.939   0.000  1.00  0.00    -0.030 NA
HETATM    4  N   UNL     1      -3.406  -1.488   0.000  1.00  0.00    -0.041 NA
HETATM    5  C   UNL     1      -7.431   0.475   0.000  1.00  0.00     0.075 A 
HETATM    6  C   UNL     1      -7.431  -1.024   0.000  1.00  0.00     0.091 A 
HETATM    7  C   UNL     1      -6.132  -1.774   0.000  1.00  0.00     0.071 A 
HETATM    8  C   UNL     1      -2.525  -0.275   0.000  1.00  0.00     0.520 A 
HETATM    9  C   UNL     1      -4.833   0.475   0.000  1.00  0.00     0.745 A 
HETATM   10  N   UNL     1      -1.024  -0.275   0.000  1.00  0.00     0.666 N 
ENDROOT
BRANCH   5  11
HETATM   11  C   UNL     1      -8.730   1.226   0.000  1.00  0.00    -0.029 C 
HETATM   12  C   UNL     1     -10.029   0.475   0.000  1.00  0.00     0.028 C 
HETATM   13  C   UNL     1      -8.730   2.725   0.000  1.00  0.00     0.028 C 
ENDBRANCH   5  11
BRANCH   7  14
HETATM   14  C   UNL     1      -6.132  -3.275   0.000  1.00  0.00    -0.029 C 
HETATM   15  C   UNL     1      -7.431  -4.024   0.000  1.00  0.00     0.028 C 
HETATM   16  C   UNL     1      -4.833  -4.024   0.000  1.00  0.00     0.028 C 
ENDBRANCH   7  14
TORSDOF 2
