REMARK  0 active torsions:
REMARK  status: ('A' for Active; 'I' for Inactive)
ROOT
HETATM    1  N   UNL     1      -3.521  -6.654   0.000  1.00  0.00    -0.249 NA
HETATM    2  N   UNL     1      -1.994  -4.553   0.000  1.00  0.00    -0.257 N 
HETATM    3  N   UNL     1      -0.780  -3.671   0.000  1.00  0.00    -0.121 NA
HETATM    4  C   UNL     1      -1.244  -2.244   0.000  1.00  0.00     0.102 A 
HETATM    5  C   UNL     1      -2.744  -2.244   0.000  1.00  0.00     0.064 A 
HETATM    6  C   UNL     1      -3.207  -3.671   0.000  1.00  0.00     0.051 A 
HETATM    7  C   UNL     1      -4.577  -4.281   0.000  1.00  0.00     0.004 A 
HETATM    8  C   UNL     1      -5.791  -3.399   0.000  1.00  0.00     0.029 A 
HETATM    9  C   UNL     1      -7.161  -4.010   0.000  1.00  0.00     0.005 A 
HETATM   10  C   UNL     1      -4.734  -5.773   0.000  1.00  0.00     0.053 A 
HETATM   11  C   UNL     1      -7.318  -5.501   0.000  1.00  0.00     0.007 A 
HETATM   12  C   UNL     1      -6.105  -6.383   0.000  1.00  0.00     0.045 A 
HETATM   13  C   UNL     1      -2.151  -6.044   0.000  1.00  0.00     0.247 A 
HETATM   14  C   UNL     1      -0.362  -1.031   0.000  1.00  0.00     0.021 C 
ENDROOT
TORSDOF 0
