REMARK  1 active torsions:
REMARK  status: ('A' for Active; 'I' for Inactive)
REMARK    1  A    between atoms: C_9  and  C_11 
ROOT
HETATM    1  C   UNL     1      -3.348  -0.750   0.000  1.00  0.00     0.133 C 
HETATM    2  C   UNL     1      -2.049  -1.500   0.000  1.00  0.00     0.001 C 
HETATM    3  N   UNL     1      -0.750  -2.250   0.000  1.00  0.00    -0.100 N 
ENDROOT
BRANCH   1   4
HETATM    4  C   UNL     1      -4.647  -1.500   0.000  1.00  0.00     0.075 A 
HETATM    5  N   UNL     1      -5.946  -0.750   0.000  1.00  0.00    -0.254 NA
HETATM    6  C   UNL     1      -7.245  -1.500   0.000  1.00  0.00     0.071 A 
HETATM    7  C   UNL     1      -8.544  -0.750   0.000  1.00  0.00     0.047 A 
HETATM    8  C   UNL     1      -7.245  -3.000   0.000  1.00  0.00     0.068 A 
HETATM    9  C   UNL     1      -9.843  -1.500   0.000  1.00  0.00     0.007 A 
HETATM   10  C   UNL     1      -9.843  -3.000   0.000  1.00  0.00     0.007 A 
HETATM   11  C   UNL     1      -8.544  -3.750   0.000  1.00  0.00     0.047 A 
HETATM   12  N   UNL     1      -5.946  -3.750   0.000  1.00  0.00    -0.268 NA
HETATM   13  C   UNL     1      -4.647  -3.000   0.000  1.00  0.00     0.167 A 
ENDBRANCH   1   4
TORSDOF 1
