REMARK  0 active torsions:
REMARK  status: ('A' for Active; 'I' for Inactive)
ROOT
HETATM    1  H   UNL     1      -4.647  -0.750   0.000  1.00  0.00     0.165 HD
HETATM    2  N   UNL     1      -4.647  -2.250   0.000  1.00  0.00    -0.360 N 
HETATM    3  S   UNL     1      -4.647  -5.250   0.000  1.00  0.00    -0.091 SA
HETATM    4  N   UNL     1      -0.750  -4.500   0.000  1.00  0.00    -0.290 NA
HETATM    5  C   UNL     1      -2.049  -2.250   0.000  1.00  0.00     0.070 A 
HETATM    6  C   UNL     1      -0.750  -3.000   0.000  1.00  0.00     0.127 A 
HETATM    7  C   UNL     1      -3.348  -3.000   0.000  1.00  0.00     0.039 A 
HETATM    8  C   UNL     1      -3.348  -4.500   0.000  1.00  0.00     0.042 A 
HETATM    9  C   UNL     1      -2.049  -5.250   0.000  1.00  0.00     0.154 A 
HETATM   10  C   UNL     1      -7.245  -2.250   0.000  1.00  0.00     0.044 A 
HETATM   11  C   UNL     1      -5.946  -3.000   0.000  1.00  0.00     0.035 A 
HETATM   12  C   UNL     1      -8.544  -3.000   0.000  1.00  0.00     0.007 A 
HETATM   13  C   UNL     1      -5.946  -4.500   0.000  1.00  0.00     0.018 A 
HETATM   14  C   UNL     1      -8.544  -4.500   0.000  1.00  0.00     0.006 A 
HETATM   15  C   UNL     1      -7.245  -5.250   0.000  1.00  0.00     0.034 A 
ENDROOT
TORSDOF 0
