REMARK  1 active torsions:
REMARK  status: ('A' for Active; 'I' for Inactive)
REMARK    1  A    between atoms: C_5  and  C_11 
ROOT
HETATM    1  O   UNL     1      -2.456  -2.772   0.000  1.00  0.00     0.000 OA
HETATM    2  C   UNL     1      -6.959  -2.199   0.000  1.00  0.00     0.034 A 
HETATM    3  C   UNL     1      -8.258  -2.949   0.000  1.00  0.00     0.003 A 
HETATM    4  C   UNL     1      -5.660  -2.949   0.000  1.00  0.00     0.162 A 
HETATM    5  C   UNL     1      -5.660  -4.449   0.000  1.00  0.00     0.118 A 
HETATM    6  C   UNL     1      -8.258  -4.449   0.000  1.00  0.00     0.001 A 
HETATM    7  C   UNL     1      -6.959  -5.199   0.000  1.00  0.00     0.013 A 
HETATM    8 AS   UNL     1      -3.516  -1.711   0.000  1.00  0.00     0.000 As
HETATM    9  O   UNL     1      -3.128  -0.263   0.000  1.00  0.00     0.000 OA
HETATM   10  O   UNL     1      -5.016  -1.711   0.000  1.00  0.00    -0.223 OA
ENDROOT
BRANCH   5  11
HETATM   11  C   UNL     1      -4.361  -5.199   0.000  1.00  0.00     0.187 C 
HETATM   12  O   UNL     1      -3.062  -4.449   0.000  1.00  0.00    -0.647 OA
HETATM   13  O   UNL     1      -4.361  -6.699   0.000  1.00  0.00    -0.647 OA
ENDBRANCH   5  11
TORSDOF 1
