REMARK  4 active torsions:
REMARK  status: ('A' for Active; 'I' for Inactive)
REMARK    1  A    between atoms: C_3  and  C_23 
REMARK    2  A    between atoms: C_8  and  N_24 
REMARK    3  A    between atoms: C_9  and  N_24 
REMARK    4  A    between atoms: C_23  and  C_26 
ROOT
HETATM    1  O   UNL     1      -9.368  -6.274   0.000  1.00  0.00    -0.191 OA
HETATM    2  O   UNL     1      -9.368 -12.274   0.000  1.00  0.00    -0.190 OA
HETATM    3  C   UNL     1      -6.770  -7.774   0.000  1.00  0.00     0.061 A 
HETATM    4  C   UNL     1      -5.471  -8.524   0.000  1.00  0.00     0.053 A 
HETATM    5  C   UNL     1      -8.069  -8.524   0.000  1.00  0.00     0.042 A 
HETATM    6  C   UNL     1      -9.368  -7.774   0.000  1.00  0.00     0.128 A 
HETATM    7  C   UNL     1     -10.667  -8.524   0.000  1.00  0.00     0.001 A 
HETATM    8  C   UNL     1     -11.966  -7.774   0.000  1.00  0.00     0.028 A 
HETATM    9  C   UNL     1     -13.265  -8.524   0.000  1.00  0.00     0.005 A 
HETATM   10  C   UNL     1      -5.471 -10.024   0.000  1.00  0.00     0.061 A 
HETATM   11  C   UNL     1      -8.069 -10.024   0.000  1.00  0.00     0.049 A 
HETATM   12  C   UNL     1     -10.667 -10.024   0.000  1.00  0.00     0.001 A 
HETATM   13  C   UNL     1     -13.265 -10.024   0.000  1.00  0.00     0.005 A 
HETATM   14  C   UNL     1      -6.770 -10.774   0.000  1.00  0.00     0.111 A 
HETATM   15  C   UNL     1      -9.368 -10.774   0.000  1.00  0.00     0.129 A 
HETATM   16  C   UNL     1     -11.966 -10.774   0.000  1.00  0.00     0.028 A 
HETATM   17  O   UNL     1      -6.770 -12.274   0.000  1.00  0.00    -0.195 OA
ENDROOT
BRANCH   3  18
HETATM   18  N   UNL     1      -6.770  -6.274   0.000  1.00  0.00    -0.258 NA
BRANCH  18  19
HETATM   19  C   UNL     1      -5.471  -5.524   0.000  1.00  0.00     0.036 A 
HETATM   20  C   UNL     1      -4.172  -6.274   0.000  1.00  0.00     0.041 A 
HETATM   21  C   UNL     1      -2.873  -5.524   0.000  1.00  0.00     0.006 A 
HETATM   22  C   UNL     1      -2.873  -4.024   0.000  1.00  0.00     0.003 A 
HETATM   23  C   UNL     1      -4.172  -3.275   0.000  1.00  0.00     0.006 A 
HETATM   24  C   UNL     1      -5.471  -4.024   0.000  1.00  0.00     0.041 A 
BRANCH  22  25
HETATM   25  C   UNL     1      -1.574  -3.275   0.000  1.00  0.00     0.036 C 
BRANCH  25  26
HETATM   26  C   UNL     1      -0.275  -4.024   0.000  1.00  0.00     0.182 C 
HETATM   27  O   UNL     1       1.024  -3.275   0.000  1.00  0.00    -0.221 OA
ENDBRANCH  25  26
ENDBRANCH  22  25
ENDBRANCH  18  19
ENDBRANCH   3  18
TORSDOF 4
