REMARK  4 active torsions:
REMARK  status: ('A' for Active; 'I' for Inactive)
REMARK    1  A    between atoms: S_1  and  C_16 
REMARK    2  A    between atoms: S_1  and  C_22 
REMARK    3  A    between atoms: S_4  and  C_10 
REMARK    4  A    between atoms: S_4  and  C_17 
ROOT
HETATM    1  O   UNL     1       3.348  -7.500   0.000  1.00  0.00    -0.190 OA
HETATM    2  O   UNL     1       8.544 -10.500   0.000  1.00  0.00    -0.191 OA
HETATM    3  C   UNL     1       5.946  -6.000   0.000  1.00  0.00     0.005 A 
HETATM    4  C   UNL     1       5.946  -7.500   0.000  1.00  0.00     0.025 A 
HETATM    5  C   UNL     1       7.245  -5.250   0.000  1.00  0.00     0.033 A 
HETATM    6  C   UNL     1       4.647  -8.250   0.000  1.00  0.00     0.131 A 
HETATM    7  C   UNL     1       4.647  -9.750   0.000  1.00  0.00     0.025 A 
HETATM    8  C   UNL     1       3.348 -10.500   0.000  1.00  0.00     0.005 A 
HETATM    9  C   UNL     1       3.348 -12.000   0.000  1.00  0.00     0.033 A 
HETATM   10  C   UNL     1       8.544  -6.000   0.000  1.00  0.00     0.010 A 
HETATM   11  C   UNL     1       7.245  -8.250   0.000  1.00  0.00     0.005 A 
HETATM   12  C   UNL     1       5.946 -10.500   0.000  1.00  0.00     0.005 A 
HETATM   13  C   UNL     1       4.647 -12.750   0.000  1.00  0.00     0.010 A 
HETATM   14  C   UNL     1       8.544  -7.500   0.000  1.00  0.00     0.029 A 
HETATM   15  C   UNL     1       7.245  -9.750   0.000  1.00  0.00     0.123 A 
HETATM   16  C   UNL     1       5.946 -12.000   0.000  1.00  0.00     0.029 A 
ENDROOT
BRANCH   3  17
HETATM   17  S   UNL     1       4.647  -5.250   0.000  1.00  0.00    -0.119 SA
BRANCH  17  18
HETATM   18  C   UNL     1       4.647  -3.750   0.000  1.00  0.00     0.052 A 
HETATM   19  C   UNL     1       5.946  -3.000   0.000  1.00  0.00     0.011 A 
HETATM   20  C   UNL     1       5.946  -1.500   0.000  1.00  0.00     0.001 A 
HETATM   21  C   UNL     1       4.647  -0.750   0.000  1.00  0.00     0.000 A 
HETATM   22  C   UNL     1       3.348  -1.500   0.000  1.00  0.00     0.001 A 
HETATM   23  C   UNL     1       3.348  -3.000   0.000  1.00  0.00     0.011 A 
ENDBRANCH  17  18
ENDBRANCH   3  17
BRANCH   8  24
HETATM   24  S   UNL     1       2.049  -9.750   0.000  1.00  0.00    -0.119 SA
BRANCH  24  25
HETATM   25  C   UNL     1       0.750 -10.500   0.000  1.00  0.00     0.052 A 
HETATM   26  C   UNL     1       0.750 -12.000   0.000  1.00  0.00     0.011 A 
HETATM   27  C   UNL     1      -0.549 -12.750   0.000  1.00  0.00     0.001 A 
HETATM   28  C   UNL     1      -1.848 -12.000   0.000  1.00  0.00     0.000 A 
HETATM   29  C   UNL     1      -1.848 -10.500   0.000  1.00  0.00     0.001 A 
HETATM   30  C   UNL     1      -0.549  -9.750   0.000  1.00  0.00     0.011 A 
ENDBRANCH  24  25
ENDBRANCH   8  24
TORSDOF 4
