REMARK  0 active torsions:
REMARK  status: ('A' for Active; 'I' for Inactive)
ROOT
HETATM    1  N   UNL     1       3.526  -3.278   0.000  1.00  0.00    -0.235 N 
HETATM    2  O   UNL     1       3.526  -7.778   0.000  1.00  0.00    -0.223 OA
HETATM    3  C   UNL     1       4.825  -4.028   0.000  1.00  0.00     0.091 A 
HETATM    4  C   UNL     1       4.825  -5.528   0.000  1.00  0.00     0.056 A 
HETATM    5  C   UNL     1       3.526  -6.278   0.000  1.00  0.00     0.156 A 
HETATM    6  C   UNL     1       2.227  -5.528   0.000  1.00  0.00     0.056 A 
HETATM    7  C   UNL     1       2.227  -4.028   0.000  1.00  0.00     0.091 A 
HETATM    8  C   UNL     1       0.750  -4.289   0.000  1.00  0.00     0.025 C 
HETATM    9  C   UNL     1       1.714  -2.619   0.000  1.00  0.00     0.025 C 
HETATM   10  O   UNL     1       3.526  -1.778   0.000  1.00  0.00    -0.089 OA
HETATM   11  C   UNL     1       5.338  -2.619   0.000  1.00  0.00     0.025 C 
HETATM   12  C   UNL     1       6.303  -4.289   0.000  1.00  0.00     0.025 C 
ENDROOT
TORSDOF 0
