REMARK  2 active torsions:
REMARK  status: ('A' for Active; 'I' for Inactive)
REMARK    1  A    between atoms: N_1  and  N_12 
REMARK    2  A    between atoms: N_2  and  C_10 
ROOT
HETATM    1  N   UNL     1      -1.925  -0.457   0.000  1.00  0.00    -0.175 N 
HETATM    2  N   UNL     1       0.237   0.646   0.000  1.00  0.00    -0.269 N 
HETATM    3  O   UNL     1       0.239  -2.026   0.000  1.00  0.00    -0.149 OA
HETATM    4  C   UNL     1      -0.825   1.706   0.000  1.00  0.00     0.138 A 
HETATM    5  C   UNL     1      -2.161   1.024   0.000  1.00  0.00     0.160 A 
HETATM    6  C   UNL     1      -0.443  -0.691   0.000  1.00  0.00     0.283 A 
ENDROOT
BRANCH   2   7
HETATM    7  C   UNL     1       1.718   0.882   0.000  1.00  0.00     0.190 A 
HETATM    8  N   UNL     1       2.780  -0.177   0.000  1.00  0.00    -0.154 NA
HETATM    9  N   UNL     1       4.116   0.505   0.000  1.00  0.00    -0.086 NA
HETATM   10  C   UNL     1       3.880   1.986   0.000  1.00  0.00     0.181 A 
HETATM   11  S   UNL     1       2.398   2.220   0.000  1.00  0.00    -0.054 SA
ENDBRANCH   2   7
BRANCH   1  12
HETATM   12  N   UNL     1      -2.985  -1.519   0.000  1.00  0.00    -0.032 N 
HETATM   13  O   UNL     1      -4.434  -1.132   0.000  1.00  0.00    -0.516 OA
HETATM   14  O   UNL     1      -2.595  -2.967   0.000  1.00  0.00    -0.516 OA
ENDBRANCH   1  12
TORSDOF 2
