REMARK  2 active torsions:
REMARK  status: ('A' for Active; 'I' for Inactive)
REMARK    1  A    between atoms: N_1  and  C_17 
REMARK    2  A    between atoms: C_4  and  C_14 
ROOT
HETATM    1  O   UNL     1       2.091  -5.308   0.000  1.00  0.00    -0.292 OA
HETATM    2  C   UNL     1       4.689  -6.808   0.000  1.00  0.00     0.076 A 
HETATM    3  C   UNL     1       3.390  -7.558   0.000  1.00  0.00     0.004 A 
HETATM    4  C   UNL     1       5.988  -7.558   0.000  1.00  0.00     0.051 A 
HETATM    5  C   UNL     1       5.988  -9.058   0.000  1.00  0.00     0.007 A 
HETATM    6  C   UNL     1       3.390  -9.058   0.000  1.00  0.00     0.026 A 
HETATM    7  C   UNL     1       4.689  -9.808   0.000  1.00  0.00     0.005 A 
HETATM    8  C   UNL     1       3.390  -4.558   0.000  1.00  0.00     0.280 A 
HETATM    9  O   UNL     1       4.689  -5.308   0.000  1.00  0.00    -0.277 OA
HETATM   10  C   UNL     1       2.091  -6.808   0.000  1.00  0.00     0.176 A 
ENDROOT
BRANCH   8  11
HETATM   11  N   UNL     1       3.390  -3.058   0.000  1.00  0.00    -0.247 N 
HETATM   12  C   UNL     1       4.604  -2.177   0.000  1.00  0.00     0.111 A 
HETATM   13  C   UNL     1       4.140  -0.750   0.000  1.00  0.00     0.059 A 
HETATM   14  C   UNL     1       2.640  -0.750   0.000  1.00  0.00     0.080 A 
HETATM   15  C   UNL     1       2.177  -2.177   0.000  1.00  0.00     0.178 A 
HETATM   16  O   UNL     1       0.750  -2.640   0.000  1.00  0.00    -0.175 OA
BRANCH  12  17
HETATM   17  C   UNL     1       6.030  -2.640   0.000  1.00  0.00     0.224 C 
HETATM   18  O   UNL     1       7.145  -1.636   0.000  1.00  0.00    -0.643 OA
HETATM   19  O   UNL     1       6.342  -4.107   0.000  1.00  0.00    -0.643 OA
ENDBRANCH  12  17
ENDBRANCH   8  11
TORSDOF 2
