REMARK  0 active torsions:
REMARK  status: ('A' for Active; 'I' for Inactive)
ROOT
HETATM    1  N   UNL     1      -9.843  -3.750   0.000  1.00  0.00    -0.226 NA
HETATM    2  N   UNL     1      -8.544  -6.000   0.000  1.00  0.00    -0.226 NA
HETATM    3  C   UNL     1      -5.946  -3.000   0.000  1.00  0.00    -0.003 A 
HETATM    4 CL   UNL     1      -0.750  -6.000   0.000  1.00  0.00    -0.091 Cl
HETATM    5  C   UNL     1      -8.544  -3.000   0.000  1.00  0.00     0.159 A 
HETATM    6  C   UNL     1      -7.245  -3.750   0.000  1.00  0.00     0.070 A 
HETATM    7  C   UNL     1      -7.245  -5.250   0.000  1.00  0.00     0.162 A 
HETATM    8  C   UNL     1      -3.348  -3.000   0.000  1.00  0.00     0.033 A 
HETATM    9  C   UNL     1      -4.647  -3.750   0.000  1.00  0.00    -0.008 A 
HETATM   10  C   UNL     1      -2.049  -3.750   0.000  1.00  0.00     0.039 A 
HETATM   11  C   UNL     1      -2.049  -5.250   0.000  1.00  0.00     0.020 A 
HETATM   12  C   UNL     1      -4.647  -5.250   0.000  1.00  0.00     0.062 A 
HETATM   13  C   UNL     1      -3.348  -6.000   0.000  1.00  0.00     0.079 A 
HETATM   14  C   UNL     1      -9.843  -5.250   0.000  1.00  0.00     0.254 A 
HETATM   15  N   UNL     1      -8.544  -1.500   0.000  1.00  0.00    -0.248 NA
HETATM   16  N   UNL     1      -5.946  -6.000   0.000  1.00  0.00    -0.231 NA
HETATM   17  C   UNL     1      -5.946  -1.500   0.000  1.00  0.00    -0.020 A 
HETATM   18  C   UNL     1      -7.245  -0.750   0.000  1.00  0.00     0.149 A 
HETATM   19  C   UNL     1      -4.647  -0.750   0.000  1.00  0.00     0.028 C 
ENDROOT
TORSDOF 0
