REMARK  1 active torsions:
REMARK  status: ('A' for Active; 'I' for Inactive)
REMARK    1  A    between atoms: C_3  and  C_11 
ROOT
HETATM    1  C   UNL     1      -5.511  -2.881   0.000  1.00  0.00     0.066 A 
HETATM    2  C   UNL     1      -8.192  -3.450   0.000  1.00  0.00     0.024 A 
HETATM    3  C   UNL     1      -4.298  -3.762   0.000  1.00  0.00     0.029 A 
HETATM    4  C   UNL     1      -6.725  -3.762   0.000  1.00  0.00    -0.027 A 
HETATM    5  C   UNL     1      -9.196  -4.565   0.000  1.00  0.00     0.005 A 
HETATM    6  C   UNL     1      -6.261  -5.189   0.000  1.00  0.00     0.026 A 
HETATM    7  C   UNL     1      -8.732  -5.992   0.000  1.00  0.00     0.006 A 
HETATM    8  C   UNL     1      -7.265  -6.303   0.000  1.00  0.00     0.043 A 
HETATM    9  N   UNL     1      -4.761  -5.189   0.000  1.00  0.00    -0.361 N 
HETATM   10  H   UNL     1      -3.880  -6.402   0.000  1.00  0.00     0.165 HD
ENDROOT
BRANCH   3  11
HETATM   11  C   UNL     1      -2.871  -3.299   0.000  1.00  0.00    -0.033 A 
HETATM   12  C   UNL     1      -2.559  -1.831   0.000  1.00  0.00     0.023 A 
HETATM   13  C   UNL     1      -1.133  -1.368   0.000  1.00  0.00     0.004 A 
HETATM   14  C   UNL     1      -0.018  -2.372   0.000  1.00  0.00     0.001 A 
HETATM   15  C   UNL     1      -0.330  -3.839   0.000  1.00  0.00     0.004 A 
HETATM   16  C   UNL     1      -1.756  -4.302   0.000  1.00  0.00     0.023 A 
ENDBRANCH   3  11
TORSDOF 1
