REMARK  1 active torsions:
REMARK  status: ('A' for Active; 'I' for Inactive)
REMARK    1  A    between atoms: C_10  and  C_11 
ROOT
HETATM    1  O   UNL     1      -9.871  -0.075   0.000  1.00  0.00    -0.169 OA
HETATM    2  N   UNL     1      -9.822   3.912   0.000  1.00  0.00    -0.239 NA
HETATM    3  N   UNL     1      -7.720   1.277   0.000  1.00  0.00    -0.299 N 
HETATM    4 CL   UNL     1      -3.486   5.510   0.000  1.00  0.00    -0.091 Cl
HETATM    5  C   UNL     1      -8.470   4.563   0.000  1.00  0.00     0.092 A 
HETATM    6  C   UNL     1      -7.119   3.912   0.000  1.00  0.00     0.019 A 
HETATM    7  C   UNL     1      -6.019   4.932   0.000  1.00  0.00     0.063 A 
HETATM    8  C   UNL     1      -4.586   4.490   0.000  1.00  0.00     0.024 A 
HETATM    9  C   UNL     1      -4.252   3.028   0.000  1.00  0.00     0.086 A 
HETATM   10  C   UNL     1      -6.785   2.450   0.000  1.00  0.00     0.078 A 
HETATM   11  C   UNL     1      -5.351   2.007   0.000  1.00  0.00     0.095 A 
HETATM   12  C   UNL     1     -10.155   2.450   0.000  1.00  0.00     0.144 A 
HETATM   13  C   UNL     1      -9.220   1.277   0.000  1.00  0.00     0.214 A 
HETATM   14  C   UNL     1      -7.069  -0.075   0.000  1.00  0.00     0.173 A 
HETATM   15  C   UNL     1      -5.573  -0.187   0.000  1.00  0.00     0.296 A 
HETATM   16  O   UNL     1      -4.729   1.053   0.000  1.00  0.00    -0.305 OA
HETATM   17  O   UNL     1      -4.923  -1.538   0.000  1.00  0.00    -0.188 OA
ENDROOT
BRANCH   5  18
HETATM   18  C   UNL     1      -8.470   6.063   0.000  1.00  0.00     0.071 A 
HETATM   19  N   UNL     1      -7.171   6.813   0.000  1.00  0.00    -0.274 NA
HETATM   20  C   UNL     1      -7.171   8.313   0.000  1.00  0.00     0.125 A 
HETATM   21  C   UNL     1      -8.470   9.063   0.000  1.00  0.00     0.027 A 
HETATM   22  C   UNL     1      -9.769   8.313   0.000  1.00  0.00     0.008 A 
HETATM   23  C   UNL     1      -9.769   6.813   0.000  1.00  0.00     0.047 A 
ENDBRANCH   5  18
TORSDOF 1
