REMARK  4 active torsions:
REMARK  status: ('A' for Active; 'I' for Inactive)
REMARK    1  A    between atoms: C_6  and  C_13 
REMARK    2  A    between atoms: C_7  and  C_11 
REMARK    3  A    between atoms: O_9  and  C_11 
REMARK    4  A    between atoms: C_13  and  O_15 
ROOT
HETATM    1  O   UNL     1       3.522   2.900   0.000  1.00  0.00    -0.171 OA
HETATM    2  N   UNL     1       4.821   5.149   0.000  1.00  0.00    -0.333 N 
HETATM    3  H   UNL     1       6.120   4.399   0.000  1.00  0.00     0.168 HD
HETATM    4  C   UNL     1       3.522   7.399   0.000  1.00  0.00     0.053 A 
HETATM    5  C   UNL     1       2.223   6.649   0.000  1.00  0.00     0.041 A 
HETATM    6  C   UNL     1       4.821   6.649   0.000  1.00  0.00     0.085 A 
HETATM    7  C   UNL     1       2.223   5.149   0.000  1.00  0.00     0.069 A 
HETATM    8  C   UNL     1       3.522   4.399   0.000  1.00  0.00     0.191 A 
ENDROOT
BRANCH   6   9
HETATM    9  C   UNL     1       6.120   7.399   0.000  1.00  0.00     0.240 C 
HETATM   10  O   UNL     1       7.419   6.649   0.000  1.00  0.00    -0.162 OA
BRANCH   9  11
HETATM   11  O   UNL     1       6.120   8.899   0.000  1.00  0.00    -0.305 OA
HETATM   12  C   UNL     1       4.821   9.649   0.000  1.00  0.00     0.184 C 
ENDBRANCH   9  11
ENDBRANCH   6   9
BRANCH   7  13
HETATM   13  C   UNL     1       0.924   4.399   0.000  1.00  0.00     0.228 C 
HETATM   14  O   UNL     1      -0.375   5.149   0.000  1.00  0.00    -0.164 OA
BRANCH  13  15
HETATM   15  O   UNL     1       0.924   2.900   0.000  1.00  0.00    -0.306 OA
HETATM   16  C   UNL     1      -0.375   2.150   0.000  1.00  0.00     0.184 C 
ENDBRANCH  13  15
ENDBRANCH   7  13
TORSDOF 4
