REMARK  3 active torsions:
REMARK  status: ('A' for Active; 'I' for Inactive)
REMARK    1  A    between atoms: C_9  and  C_18 
REMARK    2  A    between atoms: C_12  and  C_19 
REMARK    3  A    between atoms: C_18  and  C_19 
ROOT
HETATM    1  N   UNL     1     -10.767  -3.650   0.000  1.00  0.00    -0.275 NA
HETATM    2  C   UNL     1      -9.468  -5.899   0.000  1.00  0.00     0.045 A 
HETATM    3  C   UNL     1      -9.468  -4.399   0.000  1.00  0.00     0.049 A 
HETATM    4  C   UNL     1      -8.169  -6.649   0.000  1.00  0.00     0.007 A 
HETATM    5  C   UNL     1      -8.169  -3.650   0.000  1.00  0.00    -0.017 A 
HETATM    6  C   UNL     1      -6.870  -5.899   0.000  1.00  0.00     0.005 A 
HETATM    7  C   UNL     1      -6.870  -4.399   0.000  1.00  0.00     0.027 A 
HETATM    8  C   UNL     1      -8.169  -2.150   0.000  1.00  0.00    -0.045 A 
HETATM    9  C   UNL     1     -10.767  -2.150   0.000  1.00  0.00     0.130 A 
HETATM   10  C   UNL     1      -9.468  -1.399   0.000  1.00  0.00     0.048 A 
ENDROOT
BRANCH   8  11
HETATM   11  C   UNL     1      -6.870  -1.399   0.000  1.00  0.00     0.026 C 
BRANCH  11  12
HETATM   12  C   UNL     1      -5.571  -2.150   0.000  1.00  0.00     0.027 C 
BRANCH  12  13
HETATM   13  C   UNL     1      -4.272  -1.399   0.000  1.00  0.00    -0.037 A 
HETATM   14  C   UNL     1      -2.973  -2.150   0.000  1.00  0.00     0.028 A 
HETATM   15 CL   UNL     1      -2.973  -3.650   0.000  1.00  0.00    -0.088 Cl
HETATM   16  C   UNL     1      -1.674  -1.399   0.000  1.00  0.00     0.037 A 
HETATM   17  C   UNL     1      -1.674   0.101   0.000  1.00  0.00     0.006 A 
HETATM   18  C   UNL     1      -2.973   0.851   0.000  1.00  0.00     0.005 A 
HETATM   19  C   UNL     1      -4.272   0.101   0.000  1.00  0.00     0.023 A 
ENDBRANCH  12  13
ENDBRANCH  11  12
ENDBRANCH   8  11
TORSDOF 3
