REMARK  0 active torsions:
REMARK  status: ('A' for Active; 'I' for Inactive)
ROOT
HETATM    1  O   UNL     1      -0.375   6.649   0.000  1.00  0.00    -0.193 OA
HETATM    2  O   UNL     1       2.223   2.150   0.000  1.00  0.00     0.000 OA
HETATM    3  C   UNL     1       4.821   6.649   0.000  1.00  0.00     0.000 A 
HETATM    4  C   UNL     1       6.120   5.899   0.000  1.00  0.00     0.000 A 
HETATM    5  C   UNL     1       3.522   5.899   0.000  1.00  0.00     0.007 A 
HETATM    6  C   UNL     1       2.223   6.649   0.000  1.00  0.00     0.056 A 
HETATM    7  C   UNL     1       0.924   5.899   0.000  1.00  0.00     0.127 A 
HETATM    8  C   UNL     1       6.120   4.399   0.000  1.00  0.00     0.000 A 
HETATM    9  C   UNL     1       3.522   4.399   0.000  1.00  0.00     0.006 A 
HETATM   10  C   UNL     1       0.924   4.399   0.000  1.00  0.00     0.092 A 
HETATM   11  C   UNL     1       4.821   3.650   0.000  1.00  0.00     0.001 A 
HETATM   12  C   UNL     1       2.223   3.650   0.000  1.00  0.00     0.047 A 
HETATM   13  O   UNL     1      -0.375   3.650   0.000  1.00  0.00    -0.333 OA
HETATM   14  C   UNL     1      -0.375   2.150   0.000  1.00  0.00     0.149 A 
HETATM   15  C   UNL     1       0.924   1.399   0.000  1.00  0.00     0.035 A 
HETATM   16  C   UNL     1       3.522   2.900   0.000  1.00  0.00     0.006 A 
HETATM   17  C   UNL     1       3.857   7.799   0.000  1.00  0.00     0.000 C 
HETATM   18  C   UNL     1       5.785   7.799   0.000  1.00  0.00     0.000 C 
ENDROOT
TORSDOF 0
