REMARK  1 active torsions:
REMARK  status: ('A' for Active; 'I' for Inactive)
REMARK    1  A    between atoms: C_7  and  C_11 
ROOT
HETATM    1  H   UNL     1      -4.172  -3.275   0.000  1.00  0.00     0.167 HD
HETATM    2  N   UNL     1      -4.172  -4.774   0.000  1.00  0.00    -0.344 N 
HETATM    3  O   UNL     1      -4.172  -9.274   0.000  1.00  0.00    -0.171 OA
HETATM    4  N   UNL     1      -2.873  -7.024   0.000  1.00  0.00    -0.320 N 
HETATM    5  H   UNL     1      -1.574  -7.774   0.000  1.00  0.00     0.169 HD
HETATM    6  C   UNL     1      -2.873  -5.524   0.000  1.00  0.00     0.115 A 
HETATM    7  C   UNL     1      -6.770  -4.774   0.000  1.00  0.00     0.043 A 
HETATM    8  C   UNL     1      -5.471  -5.524   0.000  1.00  0.00     0.034 A 
HETATM    9  C   UNL     1      -8.069  -5.524   0.000  1.00  0.00     0.007 A 
HETATM   10  C   UNL     1      -5.471  -7.024   0.000  1.00  0.00     0.031 A 
HETATM   11  C   UNL     1      -8.069  -7.024   0.000  1.00  0.00     0.005 A 
HETATM   12  C   UNL     1      -6.770  -7.774   0.000  1.00  0.00     0.031 A 
HETATM   13  C   UNL     1      -4.172  -7.774   0.000  1.00  0.00     0.189 A 
ENDROOT
BRANCH   6  14
HETATM   14  C   UNL     1      -1.574  -4.774   0.000  1.00  0.00     0.002 A 
HETATM   15  C   UNL     1      -1.574  -3.275   0.000  1.00  0.00    -0.045 A 
HETATM   16  C   UNL     1      -0.275  -2.525   0.000  1.00  0.00     0.022 A 
HETATM   17  C   UNL     1      -2.873  -2.525   0.000  1.00  0.00     0.026 C 
HETATM   18  C   UNL     1       1.024  -3.275   0.000  1.00  0.00     0.005 A 
HETATM   19  C   UNL     1       1.024  -4.774   0.000  1.00  0.00     0.005 A 
HETATM   20  C   UNL     1      -0.275  -5.524   0.000  1.00  0.00     0.029 A 
HETATM   21  C   UNL     1       2.324  -5.524   0.000  1.00  0.00     0.000 C 
ENDBRANCH   6  14
TORSDOF 1
