REMARK  4 active torsions:
REMARK  status: ('A' for Active; 'I' for Inactive)
REMARK    1  A    between atoms: S_1  and  C_18 
REMARK    2  A    between atoms: S_1  and  C_19 
REMARK    3  A    between atoms: C_7  and  S_25 
REMARK    4  A    between atoms: C_14  and  C_15 
ROOT
HETATM    1 CL   UNL     1      -7.245  -7.500   0.000  1.00  0.00    -0.087 Cl
HETATM    2  N   UNL     1      -7.245  -3.000   0.000  1.00  0.00    -0.255 NA
HETATM    3  C   UNL     1      -4.647  -3.000   0.000  1.00  0.00     0.047 A 
HETATM    4  C   UNL     1      -3.348  -3.750   0.000  1.00  0.00     0.025 A 
HETATM    5  C   UNL     1      -5.946  -3.750   0.000  1.00  0.00     0.055 A 
HETATM    6  C   UNL     1      -3.348  -5.250   0.000  1.00  0.00     0.143 A 
HETATM    7  C   UNL     1      -5.946  -5.250   0.000  1.00  0.00    -0.001 A 
HETATM    8  C   UNL     1      -4.647  -6.000   0.000  1.00  0.00     0.047 A 
HETATM    9  C   UNL     1      -7.245  -6.000   0.000  1.00  0.00     0.039 A 
HETATM   10  C   UNL     1      -8.544  -5.250   0.000  1.00  0.00     0.083 A 
HETATM   11  C   UNL     1      -8.544  -3.750   0.000  1.00  0.00     0.056 A 
ENDROOT
BRANCH  11  12
HETATM   12  C   UNL     1      -9.843  -3.000   0.000  1.00  0.00    -0.029 A 
HETATM   13  C   UNL     1      -9.843  -1.500   0.000  1.00  0.00     0.023 A 
HETATM   14  C   UNL     1     -11.142  -0.750   0.000  1.00  0.00     0.005 A 
HETATM   15  C   UNL     1     -12.441  -1.500   0.000  1.00  0.00     0.011 A 
HETATM   16  C   UNL     1     -12.441  -3.000   0.000  1.00  0.00     0.052 A 
HETATM   17  C   UNL     1     -11.142  -3.750   0.000  1.00  0.00     0.034 A 
BRANCH  16  18
HETATM   18  S   UNL     1     -13.740  -3.750   0.000  1.00  0.00    -0.142 SA
BRANCH  18  19
HETATM   19  C   UNL     1     -13.740  -5.250   0.000  1.00  0.00     0.048 A 
HETATM   20  C   UNL     1     -12.441  -6.000   0.000  1.00  0.00     0.011 A 
HETATM   21  C   UNL     1     -12.441  -7.500   0.000  1.00  0.00     0.001 A 
HETATM   22  C   UNL     1     -13.740  -8.250   0.000  1.00  0.00     0.000 A 
HETATM   23  C   UNL     1     -15.039  -7.500   0.000  1.00  0.00     0.001 A 
HETATM   24  C   UNL     1     -15.039  -6.000   0.000  1.00  0.00     0.011 A 
ENDBRANCH  18  19
ENDBRANCH  16  18
ENDBRANCH  11  12
BRANCH   6  25
HETATM   25  S   UNL     1      -2.049  -6.000   0.000  1.00  0.00     0.312 S 
HETATM   26  O   UNL     1      -2.799  -7.299   0.000  1.00  0.00    -0.193 OA
HETATM   27  O   UNL     1      -1.299  -4.701   0.000  1.00  0.00    -0.193 OA
HETATM   28  F   UNL     1      -0.750  -6.750   0.000  1.00  0.00    -0.104 F 
ENDBRANCH   6  25
TORSDOF 4
