REMARK  1 active torsions:
REMARK  status: ('A' for Active; 'I' for Inactive)
REMARK    1  A    between atoms: N_2  and  C_5 
ROOT
HETATM    1  N   UNL     1       7.541   0.914   0.000  1.00  0.00    -0.147 NA
HETATM    2  N   UNL     1       7.698  -0.578   0.000  1.00  0.00    -0.152 N 
HETATM    3  N   UNL     1       6.327  -1.188   0.000  1.00  0.00    -0.151 NA
HETATM    4  C   UNL     1       6.074   1.226   0.000  1.00  0.00     0.114 A 
HETATM    5  C   UNL     1       5.324   2.525   0.000  1.00  0.00    -0.009 A 
HETATM    6  C   UNL     1       5.324  -0.073   0.000  1.00  0.00     0.100 A 
HETATM    7  C   UNL     1       6.074   3.824   0.000  1.00  0.00     0.027 A 
HETATM    8  C   UNL     1       5.324   5.123   0.000  1.00  0.00     0.005 A 
HETATM    9  C   UNL     1       3.824  -0.073   0.000  1.00  0.00     0.054 A 
HETATM   10  C   UNL     1       3.824   2.525   0.000  1.00  0.00    -0.046 A 
HETATM   11  C   UNL     1       3.824   5.123   0.000  1.00  0.00     0.005 A 
HETATM   12  C   UNL     1       3.074   1.226   0.000  1.00  0.00     0.028 A 
HETATM   13  C   UNL     1       3.074   3.824   0.000  1.00  0.00     0.022 A 
ENDROOT
BRANCH   2  14
HETATM   14  C   UNL     1       8.997  -1.328   0.000  1.00  0.00     0.089 A 
HETATM   15  C   UNL     1      10.296  -0.578   0.000  1.00  0.00     0.048 A 
HETATM   16  C   UNL     1      11.595  -1.328   0.000  1.00  0.00     0.007 A 
HETATM   17  C   UNL     1      11.595  -2.828   0.000  1.00  0.00     0.006 A 
HETATM   18  C   UNL     1      10.296  -3.578   0.000  1.00  0.00     0.042 A 
HETATM   19  C   UNL     1       8.997  -2.828   0.000  1.00  0.00     0.063 A 
HETATM   20  N   UNL     1       7.698  -3.578   0.000  1.00  0.00    -0.104 NA
ENDBRANCH   2  14
TORSDOF 1
