REMARK  2 active torsions:
REMARK  status: ('A' for Active; 'I' for Inactive)
REMARK    1  A    between atoms: C_4  and  C_20 
REMARK    2  A    between atoms: C_11  and  N_19 
REMARK       I    between atoms: N_19  and  C_20 
ROOT
HETATM    1  N   UNL     1      -8.169   0.851   0.000  1.00  0.00    -0.229 NA
HETATM    2  C   UNL     1      -6.870   1.601   0.000  1.00  0.00     0.209 C 
HETATM    3  O   UNL     1      -6.870   3.100   0.000  1.00  0.00    -0.170 OA
ENDROOT
BRANCH   1   4
HETATM    4  C   UNL     1      -9.468   1.601   0.000  1.00  0.00     0.043 A 
HETATM    5  C   UNL     1      -9.468   3.100   0.000  1.00  0.00     0.063 A 
HETATM    6  C   UNL     1     -10.767   3.850   0.000  1.00  0.00    -0.046 A 
HETATM    7  C   UNL     1     -12.066   3.100   0.000  1.00  0.00    -0.051 A 
HETATM    8  C   UNL     1     -10.767   5.351   0.000  1.00  0.00     0.022 A 
HETATM    9  C   UNL     1     -12.066   1.601   0.000  1.00  0.00     0.027 A 
HETATM   10  C   UNL     1     -13.365   3.850   0.000  1.00  0.00     0.021 A 
HETATM   11  C   UNL     1     -10.767   0.851   0.000  1.00  0.00     0.046 A 
HETATM   12  C   UNL     1     -13.365   5.351   0.000  1.00  0.00     0.005 A 
HETATM   13  C   UNL     1     -12.066   6.101   0.000  1.00  0.00     0.005 A 
ENDBRANCH   1   4
BRANCH   2  14
HETATM   14  C   UNL     1      -5.571   0.851   0.000  1.00  0.00     0.029 A 
HETATM   15  C   UNL     1      -4.272   1.601   0.000  1.00  0.00     0.036 A 
HETATM   16  C   UNL     1      -2.973   0.851   0.000  1.00  0.00     0.039 A 
HETATM   17  C   UNL     1      -2.973  -0.649   0.000  1.00  0.00     0.019 A 
HETATM   18 CL   UNL     1      -1.674  -1.399   0.000  1.00  0.00    -0.091 Cl
HETATM   19  C   UNL     1      -4.272  -1.399   0.000  1.00  0.00     0.071 A 
HETATM   20  C   UNL     1      -5.571  -0.649   0.000  1.00  0.00     0.040 A 
HETATM   21 CL   UNL     1      -6.870  -1.399   0.000  1.00  0.00    -0.087 Cl
ENDBRANCH   2  14
TORSDOF 2
