REMARK  2 active torsions:
REMARK  status: ('A' for Active; 'I' for Inactive)
REMARK    1  A    between atoms: C_5  and  S_7 
REMARK    2  A    between atoms: S_7  and  C_15 
ROOT
HETATM    1  C   UNL     1       7.254   2.484   0.000  1.00  0.00     0.202 A 
HETATM    2  N   UNL     1       6.041   1.602   0.000  1.00  0.00    -0.272 N 
HETATM    3  C   UNL     1       6.504   0.175   0.000  1.00  0.00     0.165 A 
HETATM    4  C   UNL     1       8.004   0.175   0.000  1.00  0.00     0.108 A 
HETATM    5  C   UNL     1       8.468   1.602   0.000  1.00  0.00     0.058 A 
HETATM    6  O   UNL     1       7.254   3.984   0.000  1.00  0.00    -0.170 OA
HETATM    7  O   UNL     1       5.622  -1.038   0.000  1.00  0.00    -0.237 OA
HETATM    8  C   UNL     1       4.614   2.065   0.000  1.00  0.00     0.052 A 
HETATM    9  C   UNL     1       4.302   3.533   0.000  1.00  0.00     0.045 A 
HETATM   10  C   UNL     1       2.876   3.996   0.000  1.00  0.00     0.007 A 
HETATM   11  C   UNL     1       1.761   2.992   0.000  1.00  0.00     0.006 A 
HETATM   12  C   UNL     1       2.073   1.525   0.000  1.00  0.00     0.040 A 
HETATM   13  C   UNL     1       3.499   1.062   0.000  1.00  0.00     0.061 A 
HETATM   14 CL   UNL     1       3.811  -0.406   0.000  1.00  0.00    -0.020 Cl
ENDROOT
BRANCH   5  15
HETATM   15  S   UNL     1       9.894   2.065   0.000  1.00  0.00    -0.091 SA
BRANCH  15  16
HETATM   16  C   UNL     1      11.009   1.062   0.000  1.00  0.00     0.016 A 
HETATM   17  C   UNL     1      10.697  -0.406   0.000  1.00  0.00     0.034 A 
HETATM   18  C   UNL     1      11.812  -1.409   0.000  1.00  0.00     0.006 A 
HETATM   19  C   UNL     1      13.238  -0.946   0.000  1.00  0.00     0.006 A 
HETATM   20  C   UNL     1      13.550   0.522   0.000  1.00  0.00     0.041 A 
HETATM   21  C   UNL     1      12.436   1.525   0.000  1.00  0.00     0.050 A 
HETATM   22  N   UNL     1      12.747   2.993   0.000  1.00  0.00    -0.105 NA
ENDBRANCH  15  16
ENDBRANCH   5  15
TORSDOF 2
