REMARK  7 active torsions:
REMARK  status: ('A' for Active; 'I' for Inactive)
REMARK    1  A    between atoms: O_2  and  C_19 
REMARK    2  A    between atoms: O_2  and  C_25 
REMARK    3  A    between atoms: C_4  and  C_13 
REMARK    4  A    between atoms: C_23  and  C_29 
REMARK    5  A    between atoms: C_25  and  C_28 
REMARK    6  A    between atoms: C_28  and  O_32 
REMARK    7  A    between atoms: C_29  and  O_30 
ROOT
HETATM    1  O   UNL     1      -9.468   0.101   0.000  1.00  0.00    -0.308 OA
HETATM    2  C   UNL     1      -9.468  -1.399   0.000  1.00  0.00     0.091 A 
HETATM    3  C   UNL     1     -10.767  -2.150   0.000  1.00  0.00    -0.002 A 
HETATM    4  C   UNL     1      -8.169  -2.150   0.000  1.00  0.00     0.002 A 
HETATM    5  C   UNL     1      -6.870  -1.399   0.000  1.00  0.00    -0.014 A 
HETATM    6  C   UNL     1      -6.870   0.101   0.000  1.00  0.00    -0.027 A 
HETATM    7  C   UNL     1      -5.571   0.851   0.000  1.00  0.00     0.026 A 
HETATM    8  C   UNL     1      -4.272   0.101   0.000  1.00  0.00     0.008 A 
HETATM    9  C   UNL     1      -5.571  -2.150   0.000  1.00  0.00    -0.044 A 
HETATM   10  C   UNL     1      -8.169  -3.650   0.000  1.00  0.00     0.058 A 
HETATM   11  C   UNL     1     -10.767  -3.650   0.000  1.00  0.00     0.058 A 
HETATM   12  C   UNL     1      -4.272  -1.399   0.000  1.00  0.00     0.022 A 
HETATM   13  C   UNL     1      -9.468  -4.399   0.000  1.00  0.00     0.127 A 
HETATM   14  C   UNL     1      -8.504   1.250   0.000  1.00  0.00     0.128 A 
HETATM   15  O   UNL     1      -7.027   0.989   0.000  1.00  0.00     0.000 OA
HETATM   16  C   UNL     1      -5.571  -3.650   0.000  1.00  0.00     0.026 C 
HETATM   17  C   UNL     1      -2.973   0.851   0.000  1.00  0.00     0.001 C 
ENDROOT
BRANCH   3  18
HETATM   18  C   UNL     1     -12.066  -1.400   0.000  1.00  0.00    -0.032 A 
HETATM   19  C   UNL     1     -13.365  -2.150   0.000  1.00  0.00    -0.048 A 
HETATM   20  C   UNL     1     -14.664  -1.400   0.000  1.00  0.00     0.022 A 
HETATM   21  C   UNL     1     -13.365  -3.650   0.000  1.00  0.00     0.026 C 
HETATM   22  C   UNL     1     -14.664   0.100   0.000  1.00  0.00     0.004 A 
HETATM   23  C   UNL     1     -13.365   0.850   0.000  1.00  0.00     0.005 A 
HETATM   24  C   UNL     1     -15.963   0.850   0.000  1.00  0.00     0.000 C 
HETATM   25  C   UNL     1     -12.066   0.100   0.000  1.00  0.00     0.025 A 
ENDBRANCH   3  18
BRANCH  13  26
HETATM   26  O   UNL     1      -9.468  -5.900   0.000  1.00  0.00    -0.329 OA
BRANCH  26  27
HETATM   27  C   UNL     1      -8.169  -6.650   0.000  1.00  0.00     0.299 C 
HETATM   28  O   UNL     1      -6.870  -5.900   0.000  1.00  0.00    -0.187 OA
BRANCH  27  29
HETATM   29  C   UNL     1      -8.169  -8.150   0.000  1.00  0.00     0.207 C 
BRANCH  29  30
HETATM   30  O   UNL     1      -6.870  -8.900   0.000  1.00  0.00    -0.346 OA
HETATM   31  C   UNL     1      -5.571  -8.150   0.000  1.00  0.00     0.175 C 
ENDBRANCH  29  30
ENDBRANCH  27  29
ENDBRANCH  26  27
ENDBRANCH  13  26
BRANCH  14  32
HETATM   32  C   UNL     1      -9.017   2.659   0.000  1.00  0.00     0.195 C 
BRANCH  32  33
HETATM   33  O   UNL     1      -8.053   3.808   0.000  1.00  0.00    -0.345 OA
HETATM   34  C   UNL     1      -6.576   3.548   0.000  1.00  0.00     0.175 C 
ENDBRANCH  32  33
ENDBRANCH  14  32
TORSDOF 7
