REMARK  0 active torsions:
REMARK  status: ('A' for Active; 'I' for Inactive)
ROOT
HETATM    1  O   UNL     1      -8.819   4.226   0.000  1.00  0.00    -0.188 OA
HETATM    2  O   UNL     1      -8.819  -1.774   0.000  1.00  0.00    -0.324 OA
HETATM    3 BR   UNL     1      -4.922  -4.024   0.000  1.00  0.00    -0.050 Br
HETATM    4  C   UNL     1      -4.922   0.475   0.000  1.00  0.00    -0.010 A 
HETATM    5  C   UNL     1      -3.623  -0.275   0.000  1.00  0.00     0.047 A 
HETATM    6  C   UNL     1      -6.221  -0.275   0.000  1.00  0.00    -0.003 A 
HETATM    7  C   UNL     1      -3.623  -1.774   0.000  1.00  0.00    -0.034 A 
HETATM    8  C   UNL     1      -6.221  -1.774   0.000  1.00  0.00     0.013 A 
HETATM    9  C   UNL     1      -7.520   0.475   0.000  1.00  0.00     0.048 A 
HETATM   10  C   UNL     1      -7.520   1.976   0.000  1.00  0.00     0.121 A 
HETATM   11  C   UNL     1      -8.819   2.725   0.000  1.00  0.00     0.151 A 
HETATM   12  C   UNL     1      -8.819  -0.275   0.000  1.00  0.00     0.121 A 
HETATM   13  C   UNL     1     -10.118   1.976   0.000  1.00  0.00     0.033 A 
HETATM   14  C   UNL     1      -4.922  -2.525   0.000  1.00  0.00     0.025 A 
HETATM   15  C   UNL     1     -10.118   0.475   0.000  1.00  0.00     0.151 A 
HETATM   16  C   UNL     1     -11.417   2.725   0.000  1.00  0.00     0.035 C 
HETATM   17  O   UNL     1      -6.221   2.725   0.000  1.00  0.00    -0.324 OA
HETATM   18  O   UNL     1     -11.417  -0.275   0.000  1.00  0.00    -0.188 OA
HETATM   19  C   UNL     1      -7.520  -2.525   0.000  1.00  0.00     0.176 A 
HETATM   20  C   UNL     1      -4.922   1.976   0.000  1.00  0.00     0.172 A 
HETATM   21  C   UNL     1      -2.324  -2.525   0.000  1.00  0.00     0.027 C 
ENDROOT
TORSDOF 0
