REMARK  1 active torsions:
REMARK  status: ('A' for Active; 'I' for Inactive)
REMARK    1  A    between atoms: C_2  and  C_3 
ROOT
HETATM    1  C   UNL     1       4.272  -1.399   0.000  1.00  0.00     0.068 A 
HETATM    2  C   UNL     1       2.973  -2.150   0.000  1.00  0.00     0.117 A 
HETATM    3  C   UNL     1       5.571  -2.150   0.000  1.00  0.00     0.061 A 
HETATM    4  C   UNL     1       2.973  -3.650   0.000  1.00  0.00     0.100 A 
HETATM    5  C   UNL     1       5.571  -3.650   0.000  1.00  0.00    -0.008 A 
HETATM    6  C   UNL     1       4.272  -4.399   0.000  1.00  0.00     0.064 A 
HETATM    7  O   UNL     1       5.571  -8.149   0.000  1.00  0.00    -0.170 OA
HETATM    8  C   UNL     1       5.571  -6.649   0.000  1.00  0.00     0.208 A 
HETATM    9  O   UNL     1       1.674  -1.399   0.000  1.00  0.00    -0.195 OA
HETATM   10  N   UNL     1       4.272  -5.899   0.000  1.00  0.00    -0.225 NA
HETATM   11  C   UNL     1       6.870  -5.899   0.000  1.00  0.00     0.017 A 
HETATM   12  C   UNL     1       6.870  -4.399   0.000  1.00  0.00    -0.025 A 
HETATM   13  C   UNL     1       8.169  -3.650   0.000  1.00  0.00     0.026 A 
HETATM   14  C   UNL     1       9.468  -4.399   0.000  1.00  0.00     0.005 A 
HETATM   15  C   UNL     1       9.468  -5.899   0.000  1.00  0.00     0.005 A 
HETATM   16  C   UNL     1       8.169  -6.649   0.000  1.00  0.00     0.030 A 
ENDROOT
BRANCH   1  17
HETATM   17  C   UNL     1       4.272   0.101   0.000  1.00  0.00     0.209 C 
HETATM   18  O   UNL     1       5.571   0.851   0.000  1.00  0.00    -0.644 OA
HETATM   19  O   UNL     1       2.973   0.851   0.000  1.00  0.00    -0.644 OA
ENDBRANCH   1  17
TORSDOF 1
