REMARK  1 active torsions:
REMARK  status: ('A' for Active; 'I' for Inactive)
REMARK    1  A    between atoms: C_10  and  C_16 
ROOT
HETATM    1  O   UNL     1      -9.048  -5.250   0.000  1.00  0.00    -0.192 OA
HETATM    2  O   UNL     1      -2.553  -3.000   0.000  1.00  0.00    -0.352 OA
HETATM    3  C   UNL     1      -6.450  -2.250   0.000  1.00  0.00     0.140 A 
HETATM    4  C   UNL     1      -7.749  -3.000   0.000  1.00  0.00     0.210 A 
HETATM    5  C   UNL     1      -5.151  -3.000   0.000  1.00  0.00     0.027 A 
HETATM    6  C   UNL     1      -3.852  -2.250   0.000  1.00  0.00     0.170 A 
HETATM    7  C   UNL     1      -5.151  -4.500   0.000  1.00  0.00    -0.019 A 
HETATM    8  C   UNL     1      -7.749  -4.500   0.000  1.00  0.00     0.140 A 
HETATM    9  C   UNL     1      -6.450  -5.250   0.000  1.00  0.00     0.031 A 
HETATM   10  C   UNL     1      -3.852  -5.250   0.000  1.00  0.00     0.056 A 
HETATM   11  C   UNL     1      -2.553  -4.500   0.000  1.00  0.00     0.120 A 
HETATM   12  O   UNL     1      -9.226  -3.260   0.000  1.00  0.00    -0.213 OA
HETATM   13  C   UNL     1      -8.262  -1.591   0.000  1.00  0.00     0.047 C 
HETATM   14  O   UNL     1      -6.450  -0.750   0.000  1.00  0.00    -0.192 OA
HETATM   15  C   UNL     1      -1.254  -5.250   0.000  1.00  0.00     0.033 C 
ENDROOT
BRANCH   9  16
HETATM   16  C   UNL     1      -6.450  -6.750   0.000  1.00  0.00     0.210 C 
HETATM   17  O   UNL     1      -7.749  -7.500   0.000  1.00  0.00    -0.215 OA
ENDBRANCH   9  16
TORSDOF 1
