REMARK  2 active torsions:
REMARK  status: ('A' for Active; 'I' for Inactive)
REMARK    1  A    between atoms: C_6  and  N_12 
REMARK    2  A    between atoms: C_8  and  N_12 
ROOT
HETATM    1  C   UNL     1      -0.851   2.973   0.000  1.00  0.00     0.001 A 
HETATM    2  C   UNL     1      -0.101   4.272   0.000  1.00  0.00     0.006 A 
HETATM    3  C   UNL     1      -0.101   1.674   0.000  1.00  0.00     0.006 A 
HETATM    4  C   UNL     1       1.399   1.674   0.000  1.00  0.00     0.042 A 
HETATM    5  C   UNL     1       1.399   4.272   0.000  1.00  0.00     0.042 A 
HETATM    6  C   UNL     1       2.150   2.973   0.000  1.00  0.00     0.040 A 
ENDROOT
BRANCH   6   7
HETATM    7  N   UNL     1       3.650   2.973   0.000  1.00  0.00    -0.214 NA
BRANCH   7   8
HETATM    8  C   UNL     1       4.399   4.272   0.000  1.00  0.00     0.265 A 
HETATM    9  O   UNL     1       5.891   4.429   0.000  1.00  0.00    -0.298 OA
HETATM   10  C   UNL     1       6.203   5.896   0.000  1.00  0.00     0.178 A 
HETATM   11  C   UNL     1       4.904   6.646   0.000  1.00  0.00     0.162 A 
HETATM   12  N   UNL     1       3.789   5.642   0.000  1.00  0.00    -0.229 NA
ENDBRANCH   7   8
ENDBRANCH   6   7
TORSDOF 2
