REMARK  4 active torsions:
REMARK  status: ('A' for Active; 'I' for Inactive)
REMARK    1  A    between atoms: C_3  and  C_28 
REMARK    2  A    between atoms: C_7  and  C_8 
REMARK    3  A    between atoms: C_28  and  C_29 
REMARK    4  A    between atoms: C_29  and  C_30 
ROOT
HETATM    1  O   UNL     1      -3.873   9.113   0.000  1.00  0.00    -0.355 OA
HETATM    2  O   UNL     1       2.365   7.157   0.000  1.00  0.00    -0.362 OA
HETATM    3  C   UNL     1      -1.294  13.602   0.000  1.00  0.00     0.042 A 
HETATM    4  C   UNL     1       0.602  12.011   0.000  1.00  0.00     0.031 A 
HETATM    5  C   UNL     1       2.029  11.547   0.000  1.00  0.00    -0.002 A 
HETATM    6  C   UNL     1      -0.280  10.797   0.000  1.00  0.00     0.017 A 
HETATM    7  C   UNL     1      -1.771  10.640   0.000  1.00  0.00    -0.038 A 
HETATM    8  C   UNL     1      -2.381   9.270   0.000  1.00  0.00     0.125 A 
HETATM    9  C   UNL     1       2.029  10.047   0.000  1.00  0.00     0.026 A 
HETATM   10  C   UNL     1       0.602   9.584   0.000  1.00  0.00     0.027 A 
HETATM   11  C   UNL     1      -1.500   8.057   0.000  1.00  0.00     0.083 A 
HETATM   12  C   UNL     1      -0.008   8.213   0.000  1.00  0.00     0.075 A 
HETATM   13  C   UNL     1      -2.110   6.686   0.000  1.00  0.00     0.035 A 
HETATM   14  C   UNL     1      -3.602   6.529   0.000  1.00  0.00    -0.038 A 
HETATM   15  C   UNL     1      -4.212   5.159   0.000  1.00  0.00     0.053 A 
HETATM   16  C   UNL     1       0.874   7.000   0.000  1.00  0.00     0.110 A 
HETATM   17  C   UNL     1      -1.228   5.473   0.000  1.00  0.00     0.063 A 
HETATM   18  C   UNL     1      -3.330   3.946   0.000  1.00  0.00     0.155 A 
HETATM   19  C   UNL     1       0.264   5.630   0.000  1.00  0.00     0.024 A 
HETATM   20  C   UNL     1      -1.838   4.102   0.000  1.00  0.00     0.019 A 
HETATM   21  O   UNL     1      -3.940   2.575   0.000  1.00  0.00    -0.223 OA
HETATM   22  C   UNL     1      -1.943   2.606   0.000  1.00  0.00     0.002 C 
HETATM   23  C   UNL     1      -0.383   3.740   0.000  1.00  0.00    -0.027 C 
HETATM   24  C   UNL     1      -2.992   7.900   0.000  1.00  0.00     0.106 A 
HETATM   25  C   UNL     1      -2.258  12.453   0.000  1.00  0.00    -0.056 A 
HETATM   26  C   UNL     1      -1.030  12.096   0.000  1.00  0.00     0.019 A 
HETATM   27  C   UNL     1       1.606   8.469   0.000  1.00  0.00     0.092 A 
ENDROOT
BRANCH   3  28
HETATM   28  C   UNL     1      -1.033  15.079   0.000  1.00  0.00     0.009 C 
BRANCH  28  29
HETATM   29  C   UNL     1       0.376  15.592   0.000  1.00  0.00     0.098 C 
BRANCH  29  30
HETATM   30  C   UNL     1       0.637  17.069   0.000  1.00  0.00     0.185 C 
HETATM   31  O   UNL     1       2.046  17.582   0.000  1.00  0.00    -0.647 OA
HETATM   32  O   UNL     1      -0.512  18.033   0.000  1.00  0.00    -0.647 OA
ENDBRANCH  29  30
ENDBRANCH  28  29
ENDBRANCH   3  28
TORSDOF 4
