REMARK  3 active torsions:
REMARK  status: ('A' for Active; 'I' for Inactive)
REMARK    1  A    between atoms: C_1  and  C_7 
REMARK    2  A    between atoms: C_2  and  N_10 
REMARK    3  A    between atoms: N_10  and  C_11 
ROOT
HETATM    1  C   UNL     1      -6.114  -3.000   0.000  1.00  0.00     0.055 A 
HETATM    2  C   UNL     1      -4.814  -3.750   0.000  1.00  0.00     0.056 A 
HETATM    3  C   UNL     1      -7.413  -3.750   0.000  1.00  0.00     0.034 A 
HETATM    4  C   UNL     1      -4.814  -5.250   0.000  1.00  0.00     0.045 A 
HETATM    5  C   UNL     1      -7.413  -5.250   0.000  1.00  0.00     0.005 A 
HETATM    6  C   UNL     1      -6.114  -6.000   0.000  1.00  0.00     0.007 A 
ENDROOT
BRANCH   1   7
HETATM    7  C   UNL     1      -6.114  -1.500   0.000  1.00  0.00     0.208 C 
HETATM    8  O   UNL     1      -7.413  -0.750   0.000  1.00  0.00    -0.644 OA
HETATM    9  O   UNL     1      -4.814  -0.750   0.000  1.00  0.00    -0.644 OA
ENDBRANCH   1   7
BRANCH   2  10
HETATM   10  N   UNL     1      -3.515  -3.000   0.000  1.00  0.00    -0.275 NA
BRANCH  10  11
HETATM   11  C   UNL     1      -2.216  -3.750   0.000  1.00  0.00     0.125 C 
HETATM   12  C   UNL     1      -0.917  -3.000   0.000  1.00  0.00     0.028 C 
ENDBRANCH  10  11
ENDBRANCH   2  10
TORSDOF 3
