REMARK  0 active torsions:
REMARK  status: ('A' for Active; 'I' for Inactive)
ROOT
HETATM    1  N   UNL     1      -3.630  -4.462   0.000  1.00  0.00    -0.294 N 
HETATM    2  N   UNL     1      -2.330  -2.212   0.000  1.00  0.00    -0.226 NA
HETATM    3  C   UNL     1      -3.630  -7.462   0.000  1.00  0.00     0.179 A 
HETATM    4  O   UNL     1      -6.299  -7.322   0.000  1.00  0.00    -0.332 OA
HETATM    5  C   UNL     1      -1.031  -2.962   0.000  1.00  0.00     0.175 A 
HETATM    6  C   UNL     1      -1.031  -4.462   0.000  1.00  0.00     0.068 A 
HETATM    7  C   UNL     1      -2.330  -5.212   0.000  1.00  0.00     0.141 A 
HETATM    8  C   UNL     1      -3.630  -2.962   0.000  1.00  0.00     0.238 A 
HETATM    9  C   UNL     1      -4.928  -6.712   0.000  1.00  0.00     0.108 A 
HETATM   10  C   UNL     1      -5.085  -5.220   0.000  1.00  0.00     0.063 A 
HETATM   11  C   UNL     1      -6.553  -4.908   0.000  1.00  0.00     0.078 A 
HETATM   12  C   UNL     1      -7.303  -6.207   0.000  1.00  0.00     0.155 A 
HETATM   13  N   UNL     1      -2.330  -6.712   0.000  1.00  0.00    -0.247 NA
HETATM   14  C   UNL     1       0.395  -4.925   0.000  1.00  0.00     0.149 A 
HETATM   15  N   UNL     1       1.277  -3.712   0.000  1.00  0.00    -0.093 NA
HETATM   16  N   UNL     1       0.395  -2.498   0.000  1.00  0.00    -0.160 NA
ENDROOT
TORSDOF 0
