REMARK  0 active torsions:
REMARK  status: ('A' for Active; 'I' for Inactive)
ROOT
HETATM    1  O   UNL     1      -9.843  -5.049   0.000  1.00  0.00    -0.089 OA
HETATM    2  N   UNL     1      -8.544  -4.299   0.000  1.00  0.00    -0.228 N 
HETATM    3  C   UNL     1      -7.245  -2.049   0.000  1.00  0.00     0.056 A 
HETATM    4  C   UNL     1      -8.544  -2.799   0.000  1.00  0.00     0.133 A 
HETATM    5  C   UNL     1      -5.946  -2.799   0.000  1.00  0.00     0.106 A 
HETATM    6  C   UNL     1      -5.946  -4.299   0.000  1.00  0.00     0.056 A 
HETATM    7  C   UNL     1      -7.245  -5.049   0.000  1.00  0.00     0.133 A 
HETATM    8  C   UNL     1      -4.647  -2.049   0.000  1.00  0.00     0.046 A 
HETATM    9  C   UNL     1      -2.049  -2.049   0.000  1.00  0.00     0.406 A 
HETATM   10  F   UNL     1      -2.799  -0.750   0.000  1.00  0.00    -0.170 F 
HETATM   11  F   UNL     1      -0.750  -1.299   0.000  1.00  0.00    -0.170 F 
HETATM   12  F   UNL     1      -1.299  -3.348   0.000  1.00  0.00    -0.170 F 
HETATM   13  C   UNL     1      -3.348  -2.799   0.000  1.00  0.00     0.190 A 
HETATM   14  O   UNL     1      -2.049  -3.549   0.000  1.00  0.00     0.000 OA
HETATM   15  C   UNL     1      -3.608  -4.276   0.000  1.00  0.00     0.380 A 
HETATM   16  F   UNL     1      -5.086  -4.016   0.000  1.00  0.00    -0.334 F 
HETATM   17  F   UNL     1      -2.131  -4.537   0.000  1.00  0.00    -0.172 F 
HETATM   18  F   UNL     1      -3.869  -5.753   0.000  1.00  0.00    -0.172 F 
ENDROOT
TORSDOF 0
