REMARK  2 active torsions:
REMARK  status: ('A' for Active; 'I' for Inactive)
REMARK    1  A    between atoms: C_6  and  N_14 
REMARK    2  A    between atoms: C_11  and  N_14 
ROOT
HETATM    1  C   UNL     1       7.811  -1.629   0.000  1.00  0.00     0.002 A 
HETATM    2  C   UNL     1       8.871  -2.689   0.000  1.00  0.00     0.000 A 
HETATM    3  C   UNL     1       6.311  -1.629   0.000  1.00  0.00     0.019 A 
HETATM    4  C   UNL     1       5.250  -2.689   0.000  1.00  0.00     0.085 A 
HETATM    5  C   UNL     1       8.871  -4.189   0.000  1.00  0.00     0.000 A 
HETATM    6  C   UNL     1       5.250  -4.189   0.000  1.00  0.00     0.019 A 
HETATM    7  C   UNL     1       7.811  -5.250   0.000  1.00  0.00     0.000 A 
HETATM    8  C   UNL     1       6.311  -5.250   0.000  1.00  0.00     0.002 A 
ENDROOT
BRANCH   4   9
HETATM    9  N   UNL     1       3.864  -2.115   0.000  1.00  0.00    -0.206 NA
BRANCH   9  10
HETATM   10  C   UNL     1       3.668  -0.628   0.000  1.00  0.00     0.266 A 
HETATM   11  O   UNL     1       4.756   0.405   0.000  1.00  0.00    -0.298 OA
HETATM   12  C   UNL     1       4.111   1.758   0.000  1.00  0.00     0.178 A 
HETATM   13  C   UNL     1       2.623   1.563   0.000  1.00  0.00     0.162 A 
HETATM   14  N   UNL     1       2.350   0.088   0.000  1.00  0.00    -0.229 NA
ENDBRANCH   9  10
ENDBRANCH   4   9
TORSDOF 2
