REMARK  1 active torsions:
REMARK  status: ('A' for Active; 'I' for Inactive)
REMARK    1  A    between atoms: N_2  and  C_8 
ROOT
HETATM    1  N   UNL     1      -3.133  -8.427   0.000  1.00  0.00    -0.289 NA
HETATM    2  N   UNL     1       0.891  -6.463   0.000  1.00  0.00    -0.245 N 
HETATM    3  N   UNL     1       0.891  -8.890   0.000  1.00  0.00    -0.159 NA
HETATM    4  N   UNL     1       1.773  -7.677   0.000  1.00  0.00     0.010 NA
HETATM    5  C   UNL     1      -1.834  -6.177   0.000  1.00  0.00     0.073 A 
HETATM    6  C   UNL     1      -3.133  -6.927   0.000  1.00  0.00     0.127 A 
HETATM    7  C   UNL     1      -0.535  -6.927   0.000  1.00  0.00     0.075 A 
HETATM    8  C   UNL     1      -0.535  -8.427   0.000  1.00  0.00     0.113 A 
HETATM    9  C   UNL     1      -1.834  -9.177   0.000  1.00  0.00     0.168 A 
ENDROOT
BRANCH   2  10
HETATM   10  C   UNL     1       1.355  -5.037   0.000  1.00  0.00     0.038 A 
HETATM   11  C   UNL     1       2.822  -4.725   0.000  1.00  0.00     0.067 A 
HETATM   12  C   UNL     1       3.286  -3.298   0.000  1.00  0.00     0.126 A 
HETATM   13  N   UNL     1       2.282  -2.184   0.000  1.00  0.00    -0.295 NA
HETATM   14  C   UNL     1       0.815  -2.495   0.000  1.00  0.00     0.126 A 
HETATM   15  C   UNL     1       0.351  -3.922   0.000  1.00  0.00     0.067 A 
ENDBRANCH   2  10
TORSDOF 1
