REMARK  3 active torsions:
REMARK  status: ('A' for Active; 'I' for Inactive)
REMARK    1  A    between atoms: C_9  and  C_11 
REMARK    2  A    between atoms: C_11  and  C_12 
REMARK    3  A    between atoms: C_12  and  C_15 
ROOT
HETATM    1  C   UNL     1      -5.280  -2.563   0.000  1.00  0.00     0.075 C 
HETATM    2  C   UNL     1      -4.276  -1.448   0.000  1.00  0.00     0.021 C 
HETATM    3  N   UNL     1      -3.273  -0.333   0.000  1.00  0.00    -0.096 N 
ENDROOT
BRANCH   1   4
HETATM    4  C   UNL     1      -6.747  -2.251   0.000  1.00  0.00     0.062 C 
BRANCH   4   5
HETATM    5  C   UNL     1      -7.211  -0.824   0.000  1.00  0.00    -0.020 A 
HETATM    6  C   UNL     1      -8.637  -0.361   0.000  1.00  0.00    -0.017 A 
HETATM    7  C   UNL     1      -8.637   1.139   0.000  1.00  0.00     0.025 A 
HETATM    8  C   UNL     1      -9.936  -1.111   0.000  1.00  0.00     0.027 A 
HETATM    9  N   UNL     1      -7.211   1.603   0.000  1.00  0.00    -0.373 N 
HETATM   10  C   UNL     1      -9.936   1.889   0.000  1.00  0.00     0.043 A 
HETATM   11  H   UNL     1      -6.747   3.030   0.000  1.00  0.00     0.160 HD
HETATM   12  C   UNL     1      -6.329   0.389   0.000  1.00  0.00     0.121 A 
HETATM   13  C   UNL     1     -11.235   1.139   0.000  1.00  0.00     0.006 A 
HETATM   14  C   UNL     1     -11.235  -0.361   0.000  1.00  0.00     0.005 A 
ENDBRANCH   4   5
ENDBRANCH   1   4
BRANCH   1  15
HETATM   15  C   UNL     1      -4.816  -3.989   0.000  1.00  0.00     0.205 C 
HETATM   16  O   UNL     1      -3.349  -4.301   0.000  1.00  0.00    -0.174 OA
HETATM   17  N   UNL     1      -5.820  -5.104   0.000  1.00  0.00    -0.070 NA
ENDBRANCH   1  15
TORSDOF 3
