REMARK  3 active torsions:
REMARK  status: ('A' for Active; 'I' for Inactive)
REMARK    1  A    between atoms: C_8  and  C_12 
REMARK    2  A    between atoms: C_12  and  C_13 
REMARK    3  A    between atoms: C_13  and  C_14 
ROOT
HETATM    1  S   UNL     1       0.750   2.250   0.000  1.00  0.00    -0.040 SA
HETATM    2  H   UNL     1       0.750   5.250   0.000  1.00  0.00     0.170 HD
HETATM    3  N   UNL     1       2.049   4.500   0.000  1.00  0.00    -0.311 N 
HETATM    4  N   UNL     1       3.348   2.250   0.000  1.00  0.00    -0.335 N 
HETATM    5  O   UNL     1       3.348   6.750   0.000  1.00  0.00    -0.171 OA
HETATM    6  H   UNL     1       3.348   0.750   0.000  1.00  0.00     0.168 HD
HETATM    7  C   UNL     1       3.348   5.250   0.000  1.00  0.00     0.190 A 
HETATM    8  C   UNL     1       4.647   4.500   0.000  1.00  0.00     0.031 A 
HETATM    9  C   UNL     1       4.647   3.000   0.000  1.00  0.00     0.035 A 
HETATM   10  C   UNL     1       2.049   3.000   0.000  1.00  0.00     0.178 A 
HETATM   11  C   UNL     1       5.946   2.250   0.000  1.00  0.00     0.050 C 
ENDROOT
BRANCH   8  12
HETATM   12  C   UNL     1       5.946   5.250   0.000  1.00  0.00     0.031 C 
BRANCH  12  13
HETATM   13  C   UNL     1       7.245   4.500   0.000  1.00  0.00     0.005 C 
BRANCH  13  14
HETATM   14  C   UNL     1       8.544   5.250   0.000  1.00  0.00     0.000 C 
HETATM   15  C   UNL     1       9.843   4.500   0.000  1.00  0.00     0.000 C 
ENDBRANCH  13  14
ENDBRANCH  12  13
ENDBRANCH   8  12
TORSDOF 3
