REMARK  5 active torsions:
REMARK  status: ('A' for Active; 'I' for Inactive)
REMARK    1  A    between atoms: N_2  and  C_28 
REMARK    2  A    between atoms: O_3  and  C_27 
REMARK    3  A    between atoms: O_3  and  C_29 
REMARK    4  A    between atoms: C_9  and  C_29 
REMARK    5  A    between atoms: C_27  and  C_28 
ROOT
HETATM    1  N   UNL     1      -8.926  -7.632   0.000  1.00  0.00    -0.290 NA
HETATM    2  N   UNL     1      -3.234  -3.718   0.000  1.00  0.00    -0.329 N 
HETATM    3  C   UNL     1      -5.915  -4.288   0.000  1.00  0.00    -0.010 A 
HETATM    4  C   UNL     1      -6.918  -5.402   0.000  1.00  0.00    -0.025 A 
HETATM    5  C   UNL     1      -4.448  -4.599   0.000  1.00  0.00     0.055 A 
HETATM    6  C   UNL     1      -8.386  -5.090   0.000  1.00  0.00     0.052 A 
HETATM    7  C   UNL     1      -9.389  -6.205   0.000  1.00  0.00     0.125 A 
HETATM    8  C   UNL     1      -3.984  -6.026   0.000  1.00  0.00     0.008 A 
HETATM    9  C   UNL     1      -6.455  -6.829   0.000  1.00  0.00    -0.006 A 
HETATM   10  C   UNL     1      -4.988  -7.141   0.000  1.00  0.00    -0.023 A 
HETATM   11  C   UNL     1      -2.484  -6.026   0.000  1.00  0.00    -0.009 A 
HETATM   12  C   UNL     1      -0.553  -4.288   0.000  1.00  0.00     0.043 A 
HETATM   13  C   UNL     1       0.450  -5.402   0.000  1.00  0.00     0.007 A 
HETATM   14  C   UNL     1      -2.021  -4.599   0.000  1.00  0.00     0.033 A 
HETATM   15  C   UNL     1      -0.013  -6.829   0.000  1.00  0.00     0.005 A 
HETATM   16  C   UNL     1      -1.480  -7.141   0.000  1.00  0.00     0.028 A 
HETATM   17  C   UNL     1      -7.459  -7.944   0.000  1.00  0.00     0.146 A 
HETATM   18  C   UNL     1      -6.378  -2.861   0.000  1.00  0.00     0.032 C 
HETATM   19  C   UNL     1      -4.524  -8.567   0.000  1.00  0.00     0.031 C 
ENDROOT
BRANCH   2  20
HETATM   20  C   UNL     1      -3.234  -2.218   0.000  1.00  0.00     0.139 C 
BRANCH  20  21
HETATM   21  C   UNL     1      -1.935  -1.468   0.000  1.00  0.00     0.175 C 
BRANCH  21  22
HETATM   22  O   UNL     1      -0.786  -2.432   0.000  1.00  0.00    -0.307 OA
BRANCH  22  23
HETATM   23  C   UNL     1       0.624  -1.919   0.000  1.00  0.00     0.220 C 
HETATM   24  O   UNL     1       1.773  -2.883   0.000  1.00  0.00    -0.164 OA
BRANCH  23  25
HETATM   25  C   UNL     1       0.884  -0.442   0.000  1.00  0.00     0.005 A 
HETATM   26  C   UNL     1      -0.265   0.522   0.000  1.00  0.00     0.026 A 
HETATM   27  C   UNL     1      -0.004   2.000   0.000  1.00  0.00     0.004 A 
HETATM   28  C   UNL     1       1.405   2.513   0.000  1.00  0.00     0.001 A 
HETATM   29  C   UNL     1       2.554   1.548   0.000  1.00  0.00     0.004 A 
HETATM   30  C   UNL     1       2.294   0.071   0.000  1.00  0.00     0.026 A 
ENDBRANCH  23  25
ENDBRANCH  22  23
ENDBRANCH  21  22
ENDBRANCH  20  21
ENDBRANCH   2  20
TORSDOF 5
