REMARK  1 active torsions:
REMARK  status: ('A' for Active; 'I' for Inactive)
REMARK    1  A    between atoms: C_22  and  O_24 
ROOT
HETATM    1 CL   UNL     1     -11.226  -1.899   0.000  1.00  0.00    -0.086 Cl
HETATM    2 CL   UNL     1     -11.226  -4.899   0.000  1.00  0.00    -0.086 Cl
HETATM    3  O   UNL     1      -6.994  -0.750   0.000  1.00  0.00    -0.198 OA
HETATM    4  S   UNL     1      -6.029  -1.899   0.000  1.00  0.00     0.287 S 
HETATM    5  N   UNL     1      -6.029  -4.899   0.000  1.00  0.00    -0.356 N 
HETATM    6  H   UNL     1      -6.029  -6.399   0.000  1.00  0.00     0.162 HD
HETATM    7  O   UNL     1      -5.065  -0.750   0.000  1.00  0.00    -0.198 OA
HETATM    8  N   UNL     1      -4.731  -2.649   0.000  1.00  0.00    -0.109 N 
HETATM    9  C   UNL     1      -8.628  -1.899   0.000  1.00  0.00     0.079 A 
HETATM   10  C   UNL     1      -9.927  -2.649   0.000  1.00  0.00     0.048 A 
HETATM   11  C   UNL     1      -7.329  -2.649   0.000  1.00  0.00     0.100 A 
HETATM   12  C   UNL     1      -7.329  -4.149   0.000  1.00  0.00     0.045 A 
HETATM   13  C   UNL     1      -9.927  -4.149   0.000  1.00  0.00     0.048 A 
HETATM   14  C   UNL     1      -8.628  -4.899   0.000  1.00  0.00     0.082 A 
HETATM   15  C   UNL     1      -4.731  -4.149   0.000  1.00  0.00     0.216 A 
HETATM   16  C   UNL     1      -4.217  -5.559   0.000  1.00  0.00     0.174 A 
HETATM   17  O   UNL     1      -2.740  -5.819   0.000  1.00  0.00    -0.189 OA
HETATM   18  O   UNL     1      -3.431  -1.899   0.000  1.00  0.00    -0.094 OA
HETATM   19  C   UNL     1      -2.293  -3.719   0.000  1.00  0.00     0.116 A 
HETATM   20  O   UNL     1      -5.182  -6.708   0.000  1.00  0.00     0.000 OA
HETATM   21  C   UNL     1      -4.669  -8.117   0.000  1.00  0.00     0.000 C 
HETATM   22  C   UNL     1      -1.780  -2.310   0.000  1.00  0.00     0.276 A 
HETATM   23  O   UNL     1      -2.744  -1.161   0.000  1.00  0.00    -0.169 OA
ENDROOT
BRANCH  22  24
HETATM   24  O   UNL     1      -0.303  -2.049   0.000  1.00  0.00    -0.326 OA
HETATM   25  C   UNL     1       0.210  -0.640   0.000  1.00  0.00     0.177 C 
ENDBRANCH  22  24
TORSDOF 1
