REMARK  3 active torsions:
REMARK  status: ('A' for Active; 'I' for Inactive)
REMARK    1  A    between atoms: C_8  and  C_10 
REMARK    2  A    between atoms: C_16  and  N_18 
REMARK       I    between atoms: N_18  and  C_19 
REMARK    3  A    between atoms: C_19  and  C_21 
ROOT
HETATM    1  N   UNL     1      -9.666   1.733   0.000  1.00  0.00    -0.229 NA
HETATM    2  N   UNL     1      -9.666  -1.267   0.000  1.00  0.00    -0.258 NA
HETATM    3  N   UNL     1      -6.941   1.447   0.000  1.00  0.00    -0.230 N 
HETATM    4  N   UNL     1      -6.059   0.233   0.000  1.00  0.00    -0.147 NA
HETATM    5  C   UNL     1     -10.965   0.983   0.000  1.00  0.00     0.077 A 
HETATM    6  C   UNL     1     -10.965  -0.517   0.000  1.00  0.00     0.171 A 
HETATM    7  C   UNL     1      -8.367   0.983   0.000  1.00  0.00     0.180 A 
HETATM    8  C   UNL     1      -8.367  -0.517   0.000  1.00  0.00     0.149 A 
HETATM    9  C   UNL     1      -6.941  -0.980   0.000  1.00  0.00     0.204 A 
HETATM   10  C   UNL     1      -6.477   2.873   0.000  1.00  0.00     0.156 C 
ENDROOT
BRANCH   5  11
HETATM   11  C   UNL     1     -12.264   1.733   0.000  1.00  0.00    -0.028 A 
HETATM   12  C   UNL     1     -12.264   3.233   0.000  1.00  0.00     0.029 A 
HETATM   13  C   UNL     1     -13.563   3.983   0.000  1.00  0.00     0.038 A 
HETATM   14  C   UNL     1     -14.862   3.233   0.000  1.00  0.00     0.014 A 
HETATM   15 CL   UNL     1     -16.162   3.983   0.000  1.00  0.00    -0.092 Cl
HETATM   16  C   UNL     1     -14.862   1.733   0.000  1.00  0.00     0.038 A 
HETATM   17  C   UNL     1     -13.563   0.983   0.000  1.00  0.00     0.029 A 
ENDBRANCH   5  11
BRANCH   9  18
HETATM   18  N   UNL     1      -6.477  -2.407   0.000  1.00  0.00    -0.194 NA
HETATM   19  C   UNL     1      -5.010  -2.719   0.000  1.00  0.00     0.286 C 
HETATM   20  O   UNL     1      -4.006  -1.604   0.000  1.00  0.00    -0.165 OA
BRANCH  19  21
HETATM   21  C   UNL     1      -4.546  -4.145   0.000  1.00  0.00     0.460 C 
HETATM   22  F   UNL     1      -5.973  -4.609   0.000  1.00  0.00    -0.163 F 
HETATM   23  F   UNL     1      -3.120  -3.682   0.000  1.00  0.00    -0.163 F 
HETATM   24  F   UNL     1      -4.083  -5.572   0.000  1.00  0.00    -0.163 F 
ENDBRANCH  19  21
ENDBRANCH   9  18
TORSDOF 3
