REMARK  4 active torsions:
REMARK  status: ('A' for Active; 'I' for Inactive)
REMARK    1  A    between atoms: O_1  and  C_4 
REMARK    2  A    between atoms: O_1  and  C_15 
REMARK    3  A    between atoms: C_5  and  N_17 
REMARK    4  A    between atoms: C_9  and  C_15 
ROOT
HETATM    1  O   UNL     1       5.471   5.524   0.000  1.00  0.00    -0.312 OA
ENDROOT
BRANCH   1   2
HETATM    2  C   UNL     1       6.770   6.275   0.000  1.00  0.00     0.124 A 
HETATM    3  C   UNL     1       6.770   7.775   0.000  1.00  0.00     0.036 A 
HETATM    4  C   UNL     1       8.069   8.525   0.000  1.00  0.00     0.048 A 
HETATM    5  C   UNL     1       9.368   7.775   0.000  1.00  0.00     0.082 A 
HETATM    6  C   UNL     1       9.368   6.275   0.000  1.00  0.00     0.048 A 
HETATM    7  C   UNL     1       8.069   5.525   0.000  1.00  0.00     0.036 A 
BRANCH   5   8
HETATM    8  N   UNL     1      10.667   8.525   0.000  1.00  0.00    -0.122 N 
HETATM    9  O   UNL     1      10.667  10.025   0.000  1.00  0.00    -0.532 OA
HETATM   10  O   UNL     1      11.966   7.775   0.000  1.00  0.00    -0.532 OA
ENDBRANCH   5   8
ENDBRANCH   1   2
BRANCH   1  11
HETATM   11  C   UNL     1       4.172   6.274   0.000  1.00  0.00     0.220 C 
HETATM   12  O   UNL     1       4.172   7.774   0.000  1.00  0.00    -0.164 OA
BRANCH  11  13
HETATM   13  C   UNL     1       2.873   5.524   0.000  1.00  0.00     0.005 A 
HETATM   14  C   UNL     1       1.573   6.274   0.000  1.00  0.00     0.028 A 
HETATM   15  C   UNL     1       0.275   5.524   0.000  1.00  0.00     0.043 A 
HETATM   16  C   UNL     1       0.275   4.024   0.000  1.00  0.00     0.303 A 
HETATM   17  C   UNL     1       1.573   3.275   0.000  1.00  0.00     0.043 A 
HETATM   18  N   UNL     1      -1.024   3.275   0.000  1.00  0.00     0.616 N 
HETATM   19  C   UNL     1       2.873   4.024   0.000  1.00  0.00     0.028 A 
ENDBRANCH  11  13
ENDBRANCH   1  11
TORSDOF 4
