REMARK  0 active torsions:
REMARK  status: ('A' for Active; 'I' for Inactive)
ROOT
HETATM    1  N   UNL     1      -1.029  -2.903   0.000  1.00  0.00    -0.353 N 
HETATM    2  H   UNL     1      -1.910  -1.689   0.000  1.00  0.00     0.162 HD
HETATM    3  N   UNL     1       0.935  -4.329   0.000  1.00  0.00    -0.249 NA
HETATM    4  C   UNL     1      -1.492  -4.329   0.000  1.00  0.00     0.063 A 
HETATM    5  C   UNL     1      -0.279  -5.211   0.000  1.00  0.00     0.071 A 
HETATM    6  C   UNL     1      -2.862  -4.939   0.000  1.00  0.00    -0.011 A 
HETATM    7  C   UNL     1      -4.076  -4.058   0.000  1.00  0.00     0.060 A 
HETATM    8  C   UNL     1      -5.446  -4.668   0.000  1.00  0.00     0.157 A 
HETATM    9  C   UNL     1      -0.435  -6.703   0.000  1.00  0.00     0.051 A 
HETATM   10  C   UNL     1      -3.019  -6.431   0.000  1.00  0.00    -0.046 A 
HETATM   11  C   UNL     1      -5.603  -6.160   0.000  1.00  0.00     0.038 A 
HETATM   12  C   UNL     1      -1.806  -7.313   0.000  1.00  0.00     0.028 A 
HETATM   13  C   UNL     1      -4.390  -7.041   0.000  1.00  0.00     0.024 A 
HETATM   14  C   UNL     1       0.471  -2.903   0.000  1.00  0.00     0.227 A 
HETATM   15  O   UNL     1      -6.660  -3.786   0.000  1.00  0.00    -0.223 OA
ENDROOT
TORSDOF 0
