REMARK  8 active torsions:
REMARK  status: ('A' for Active; 'I' for Inactive)
REMARK    1  A    between atoms: O_1  and  C_4 
REMARK    2  A    between atoms: O_1  and  C_9 
REMARK    3  A    between atoms: C_5  and  N_30 
REMARK    4  A    between atoms: C_6  and  N_27 
REMARK    5  A    between atoms: C_12  and  N_26 
REMARK    6  A    between atoms: C_15  and  N_26 
REMARK    7  A    between atoms: C_17  and  N_23 
REMARK    8  A    between atoms: C_18  and  N_20 
ROOT
HETATM    1  C   UNL     1       3.348  -9.000   0.000  1.00  0.00     0.036 A 
HETATM    2  C   UNL     1       2.049  -9.750   0.000  1.00  0.00     0.122 A 
HETATM    3  C   UNL     1       3.348  -7.500   0.000  1.00  0.00     0.044 A 
HETATM    4  C   UNL     1       0.750  -9.000   0.000  1.00  0.00     0.036 A 
HETATM    5  C   UNL     1       2.049  -6.750   0.000  1.00  0.00     0.037 A 
HETATM    6  C   UNL     1       0.750  -7.500   0.000  1.00  0.00     0.044 A 
ENDROOT
BRANCH   2   7
HETATM    7  O   UNL     1       2.049 -11.250   0.000  1.00  0.00    -0.336 OA
BRANCH   7   8
HETATM    8  C   UNL     1       3.348 -12.000   0.000  1.00  0.00     0.090 A 
HETATM    9  C   UNL     1       4.647 -11.250   0.000  1.00  0.00     0.059 A 
HETATM   10  C   UNL     1       5.946 -12.000   0.000  1.00  0.00     0.053 A 
HETATM   11  C   UNL     1       5.946 -13.500   0.000  1.00  0.00     0.088 A 
HETATM   12  C   UNL     1       4.647 -14.250   0.000  1.00  0.00     0.098 A 
HETATM   13  C   UNL     1       3.348 -13.500   0.000  1.00  0.00     0.128 A 
BRANCH  11  14
HETATM   14  N   UNL     1       7.245 -14.250   0.000  1.00  0.00    -0.122 N 
HETATM   15  O   UNL     1       8.544 -13.500   0.000  1.00  0.00    -0.532 OA
HETATM   16  O   UNL     1       7.245 -15.750   0.000  1.00  0.00    -0.532 OA
ENDBRANCH  11  14
BRANCH  13  17
HETATM   17  N   UNL     1       2.049 -14.250   0.000  1.00  0.00    -0.116 N 
HETATM   18  O   UNL     1       0.750 -13.500   0.000  1.00  0.00    -0.532 OA
HETATM   19  O   UNL     1       2.049 -15.750   0.000  1.00  0.00    -0.532 OA
ENDBRANCH  13  17
ENDBRANCH   7   8
ENDBRANCH   2   7
BRANCH   5  20
HETATM   20  N   UNL     1       2.049  -5.250   0.000  1.00  0.00    -0.257 NA
BRANCH  20  21
HETATM   21  C   UNL     1       3.348  -4.500   0.000  1.00  0.00     0.077 A 
HETATM   22  C   UNL     1       4.647  -5.250   0.000  1.00  0.00     0.053 A 
HETATM   23  C   UNL     1       5.946  -4.500   0.000  1.00  0.00     0.053 A 
HETATM   24  C   UNL     1       5.946  -3.000   0.000  1.00  0.00     0.088 A 
HETATM   25  C   UNL     1       4.647  -2.250   0.000  1.00  0.00     0.097 A 
HETATM   26  C   UNL     1       3.348  -3.000   0.000  1.00  0.00     0.123 A 
BRANCH  24  27
HETATM   27  N   UNL     1       7.245  -2.250   0.000  1.00  0.00    -0.122 N 
HETATM   28  O   UNL     1       8.544  -3.000   0.000  1.00  0.00    -0.532 OA
HETATM   29  O   UNL     1       7.245  -0.750   0.000  1.00  0.00    -0.532 OA
ENDBRANCH  24  27
BRANCH  26  30
HETATM   30  N   UNL     1       2.049  -2.250   0.000  1.00  0.00    -0.116 N 
HETATM   31  O   UNL     1       0.750  -3.000   0.000  1.00  0.00    -0.532 OA
HETATM   32  O   UNL     1       2.049  -0.750   0.000  1.00  0.00    -0.532 OA
ENDBRANCH  26  30
ENDBRANCH  20  21
ENDBRANCH   5  20
TORSDOF 8
