REMARK  3 active torsions:
REMARK  status: ('A' for Active; 'I' for Inactive)
REMARK    1  A    between atoms: C_3  and  C_14 
REMARK    2  A    between atoms: C_7  and  C_14 
REMARK    3  A    between atoms: C_14  and  C_15 
ROOT
HETATM    1  C   UNL     1       5.594  -1.702   0.000  1.00  0.00     0.062 C 
ENDROOT
BRANCH   1   2
HETATM    2  C   UNL     1       6.893  -2.451   0.000  1.00  0.00    -0.040 A 
HETATM    3  C   UNL     1       8.192  -1.702   0.000  1.00  0.00     0.022 A 
HETATM    4  C   UNL     1       9.491  -2.451   0.000  1.00  0.00     0.004 A 
HETATM    5  C   UNL     1       9.491  -3.951   0.000  1.00  0.00     0.001 A 
HETATM    6  C   UNL     1       8.192  -4.702   0.000  1.00  0.00     0.004 A 
HETATM    7  C   UNL     1       6.893  -3.951   0.000  1.00  0.00     0.022 A 
ENDBRANCH   1   2
BRANCH   1   8
HETATM    8  C   UNL     1       5.594  -0.202   0.000  1.00  0.00     0.150 A 
HETATM    9  C   UNL     1       6.107   1.208   0.000  1.00  0.00     0.035 A 
HETATM   10  C   UNL     1       5.143   2.357   0.000  1.00  0.00     0.003 A 
HETATM   11  C   UNL     1       3.665   2.097   0.000  1.00  0.00     0.000 A 
HETATM   12  C   UNL     1       3.152   0.687   0.000  1.00  0.00     0.003 A 
HETATM   13  C   UNL     1       4.117  -0.462   0.000  1.00  0.00     0.035 A 
HETATM   14  O   UNL     1       7.071  -0.462   0.000  1.00  0.00    -0.221 OA
ENDBRANCH   1   8
BRANCH   1  15
HETATM   15  C   UNL     1       4.295  -2.451   0.000  1.00  0.00     0.208 C 
HETATM   16  O   UNL     1       2.996  -1.702   0.000  1.00  0.00    -0.644 OA
HETATM   17  O   UNL     1       4.295  -3.951   0.000  1.00  0.00    -0.644 OA
ENDBRANCH   1  15
TORSDOF 3
