REMARK  5 active torsions:
REMARK  status: ('A' for Active; 'I' for Inactive)
REMARK    1  A    between atoms: C_2  and  N_7 
REMARK    2  A    between atoms: C_4  and  C_8 
REMARK       I    between atoms: N_7  and  C_10 
REMARK       I    between atoms: C_10  and  N_12 
REMARK    3  A    between atoms: N_12  and  C_13 
REMARK    4  A    between atoms: C_13  and  C_14 
REMARK    5  A    between atoms: C_14  and  C_15 
ROOT
HETATM    1  C   UNL     1      -3.622  -6.955   0.000  1.00  0.00     0.045 A 
HETATM    2  C   UNL     1      -4.586  -5.806   0.000  1.00  0.00     0.055 A 
HETATM    3  C   UNL     1      -4.135  -8.365   0.000  1.00  0.00     0.007 A 
HETATM    4  C   UNL     1      -6.063  -6.067   0.000  1.00  0.00    -0.030 A 
HETATM    5  C   UNL     1      -5.612  -8.625   0.000  1.00  0.00     0.005 A 
HETATM    6  C   UNL     1      -6.576  -7.476   0.000  1.00  0.00     0.023 A 
ENDROOT
BRANCH   2   7
HETATM    7  N   UNL     1      -4.073  -4.397   0.000  1.00  0.00    -0.209 NA
HETATM    8  C   UNL     1      -2.573  -4.397   0.000  1.00  0.00     0.296 C 
HETATM    9  O   UNL     1      -1.823  -3.098   0.000  1.00  0.00    -0.147 OA
HETATM   10  N   UNL     1      -1.823  -5.696   0.000  1.00  0.00    -0.230 NA
BRANCH  10  11
HETATM   11  C   UNL     1      -0.323  -5.696   0.000  1.00  0.00     0.129 C 
BRANCH  11  12
HETATM   12  C   UNL     1       0.427  -4.397   0.000  1.00  0.00     0.026 C 
BRANCH  12  13
HETATM   13  C   UNL     1       1.927  -4.397   0.000  1.00  0.00     0.002 C 
HETATM   14  C   UNL     1       2.677  -5.696   0.000  1.00  0.00     0.000 C 
ENDBRANCH  12  13
ENDBRANCH  11  12
ENDBRANCH  10  11
ENDBRANCH   2   7
BRANCH   4  15
HETATM   15  C   UNL     1      -7.027  -4.918   0.000  1.00  0.00     0.023 C 
HETATM   16  C   UNL     1      -6.514  -3.508   0.000  1.00  0.00     0.005 C 
ENDBRANCH   4  15
TORSDOF 5
