REMARK  2 active torsions:
REMARK  status: ('A' for Active; 'I' for Inactive)
REMARK    1  A    between atoms: O_1  and  C_14 
REMARK    2  A    between atoms: O_1  and  C_25 
ROOT
HETATM    1  O   UNL     1       2.973  -3.650   0.000  1.00  0.00    -0.288 OA
HETATM    2  C   UNL     1       2.973   0.851   0.000  1.00  0.00     0.005 A 
HETATM    3  C   UNL     1       4.272   0.101   0.000  1.00  0.00     0.028 A 
HETATM    4  C   UNL     1       1.674   0.101   0.000  1.00  0.00     0.007 A 
HETATM    5  C   UNL     1       4.272  -1.399   0.000  1.00  0.00    -0.007 A 
HETATM    6  C   UNL     1       1.674  -1.399   0.000  1.00  0.00     0.051 A 
HETATM    7  C   UNL     1       2.973  -2.150   0.000  1.00  0.00     0.075 A 
HETATM    8  C   UNL     1       5.571  -3.650   0.000  1.00  0.00     0.044 A 
HETATM    9  C   UNL     1       5.571  -2.150   0.000  1.00  0.00    -0.020 A 
HETATM   10  C   UNL     1       6.870  -4.399   0.000  1.00  0.00    -0.004 A 
HETATM   11  C   UNL     1       6.870  -5.899   0.000  1.00  0.00     0.026 A 
HETATM   12  C   UNL     1       8.169  -6.649   0.000  1.00  0.00     0.031 A 
HETATM   13  C   UNL     1       6.870  -1.399   0.000  1.00  0.00     0.031 A 
HETATM   14  C   UNL     1       8.169  -3.650   0.000  1.00  0.00    -0.044 A 
HETATM   15  C   UNL     1       9.468  -5.899   0.000  1.00  0.00     0.009 A 
HETATM   16  C   UNL     1       8.169  -2.150   0.000  1.00  0.00     0.027 A 
HETATM   17  C   UNL     1       9.468  -4.399   0.000  1.00  0.00     0.022 A 
HETATM   18  C   UNL     1       5.906  -7.049   0.000  1.00  0.00     0.224 A 
HETATM   19  O   UNL     1       4.429  -6.788   0.000  1.00  0.00    -0.164 OA
HETATM   20  C   UNL     1       4.272  -4.399   0.000  1.00  0.00     0.232 A 
HETATM   21  O   UNL     1       4.272  -5.899   0.000  1.00  0.00    -0.163 OA
ENDROOT
BRANCH  18  22
HETATM   22  O   UNL     1       6.419  -8.458   0.000  1.00  0.00    -0.312 OA
BRANCH  22  23
HETATM   23  C   UNL     1       5.455  -9.607   0.000  1.00  0.00     0.123 A 
HETATM   24  C   UNL     1       3.978  -9.347   0.000  1.00  0.00     0.030 A 
HETATM   25  C   UNL     1       3.014 -10.496   0.000  1.00  0.00     0.003 A 
HETATM   26  C   UNL     1       3.526 -11.905   0.000  1.00  0.00     0.000 A 
HETATM   27  C   UNL     1       5.004 -12.166   0.000  1.00  0.00     0.003 A 
HETATM   28  C   UNL     1       5.968 -11.017   0.000  1.00  0.00     0.030 A 
ENDBRANCH  22  23
ENDBRANCH  18  22
TORSDOF 2
