REMARK  4 active torsions:
REMARK  status: ('A' for Active; 'I' for Inactive)
REMARK    1  A    between atoms: C_4  and  N_24 
REMARK    2  A    between atoms: C_10  and  N_21 
REMARK    3  A    between atoms: C_12  and  N_20 
REMARK    4  A    between atoms: C_15  and  N_20 
REMARK       I    between atoms: N_21  and  C_22 
REMARK       I    between atoms: C_22  and  N_24 
ROOT
HETATM    1  C   UNL     1       3.348  -7.500   0.000  1.00  0.00     0.047 A 
HETATM    2  C   UNL     1       3.348  -6.000   0.000  1.00  0.00     0.047 A 
HETATM    3  C   UNL     1       2.049  -8.250   0.000  1.00  0.00     0.041 A 
HETATM    4  C   UNL     1       0.750  -7.500   0.000  1.00  0.00     0.047 A 
HETATM    5  C   UNL     1       2.049  -5.250   0.000  1.00  0.00     0.037 A 
HETATM    6  C   UNL     1       0.750  -6.000   0.000  1.00  0.00     0.047 A 
ENDROOT
BRANCH   3   7
HETATM    7  N   UNL     1       2.049  -9.750   0.000  1.00  0.00    -0.212 NA
HETATM    8  C   UNL     1       3.348 -10.500   0.000  1.00  0.00     0.299 C 
HETATM    9  O   UNL     1       4.647  -9.750   0.000  1.00  0.00    -0.147 OA
HETATM   10  N   UNL     1       3.348 -12.000   0.000  1.00  0.00    -0.207 NA
BRANCH  10  11
HETATM   11  C   UNL     1       4.647 -12.750   0.000  1.00  0.00     0.069 A 
HETATM   12  C   UNL     1       5.946 -12.000   0.000  1.00  0.00     0.046 A 
HETATM   13  C   UNL     1       7.245 -12.750   0.000  1.00  0.00     0.007 A 
HETATM   14  C   UNL     1       7.245 -14.250   0.000  1.00  0.00     0.006 A 
HETATM   15  C   UNL     1       5.946 -15.000   0.000  1.00  0.00     0.039 A 
HETATM   16  C   UNL     1       4.647 -14.250   0.000  1.00  0.00     0.049 A 
HETATM   17 CL   UNL     1       3.348 -15.000   0.000  1.00  0.00    -0.086 Cl
ENDBRANCH  10  11
ENDBRANCH   3   7
BRANCH   5  18
HETATM   18  N   UNL     1       2.049  -3.750   0.000  1.00  0.00    -0.263 NA
BRANCH  18  19
HETATM   19  C   UNL     1       3.348  -3.000   0.000  1.00  0.00     0.036 A 
HETATM   20  C   UNL     1       4.647  -3.750   0.000  1.00  0.00     0.041 A 
HETATM   21  C   UNL     1       5.946  -3.000   0.000  1.00  0.00     0.006 A 
HETATM   22  C   UNL     1       5.946  -1.500   0.000  1.00  0.00     0.001 A 
HETATM   23  C   UNL     1       4.647  -0.750   0.000  1.00  0.00     0.006 A 
HETATM   24  C   UNL     1       3.348  -1.500   0.000  1.00  0.00     0.041 A 
ENDBRANCH  18  19
ENDBRANCH   5  18
TORSDOF 4
