REMARK  3 active torsions:
REMARK  status: ('A' for Active; 'I' for Inactive)
REMARK    1  A    between atoms: C_4  and  C_18 
REMARK    2  A    between atoms: C_10  and  N_16 
REMARK    3  A    between atoms: C_11  and  C_14 
REMARK       I    between atoms: N_16  and  C_18 
ROOT
HETATM    1  N   UNL     1      -5.946  -3.750   0.000  1.00  0.00    -0.225 NA
HETATM    2  C   UNL     1      -4.647  -3.000   0.000  1.00  0.00     0.209 C 
HETATM    3  O   UNL     1      -4.647  -1.500   0.000  1.00  0.00    -0.170 OA
ENDROOT
BRANCH   1   4
HETATM    4  C   UNL     1      -7.245  -3.000   0.000  1.00  0.00     0.060 A 
HETATM    5  C   UNL     1      -7.245  -1.500   0.000  1.00  0.00     0.046 A 
HETATM    6  C   UNL     1      -8.544  -0.750   0.000  1.00  0.00     0.007 A 
HETATM    7  C   UNL     1      -9.843  -1.500   0.000  1.00  0.00     0.005 A 
HETATM    8  C   UNL     1      -9.843  -3.000   0.000  1.00  0.00     0.031 A 
HETATM    9  C   UNL     1      -8.544  -3.750   0.000  1.00  0.00     0.030 A 
BRANCH   9  10
HETATM   10  C   UNL     1      -8.544  -5.250   0.000  1.00  0.00     0.197 C 
HETATM   11  O   UNL     1      -7.245  -6.000   0.000  1.00  0.00    -0.175 OA
HETATM   12  N   UNL     1      -9.843  -6.000   0.000  1.00  0.00    -0.071 NA
ENDBRANCH   9  10
ENDBRANCH   1   4
BRANCH   2  13
HETATM   13  C   UNL     1      -3.348  -3.750   0.000  1.00  0.00     0.028 A 
HETATM   14  C   UNL     1      -2.049  -3.000   0.000  1.00  0.00     0.031 A 
HETATM   15  C   UNL     1      -0.750  -3.750   0.000  1.00  0.00     0.005 A 
HETATM   16  C   UNL     1      -0.750  -5.250   0.000  1.00  0.00     0.006 A 
HETATM   17  C   UNL     1      -2.049  -6.000   0.000  1.00  0.00     0.038 A 
HETATM   18  C   UNL     1      -3.348  -5.250   0.000  1.00  0.00     0.035 A 
HETATM   19 CL   UNL     1      -4.647  -6.000   0.000  1.00  0.00    -0.087 Cl
ENDBRANCH   2  13
TORSDOF 3
