REMARK  3 active torsions:
REMARK  status: ('A' for Active; 'I' for Inactive)
REMARK    1  A    between atoms: C_11  and  N_17 
REMARK    2  A    between atoms: C_12  and  C_15 
REMARK    3  A    between atoms: N_17  and  C_19 
ROOT
HETATM    1  O   UNL     1       0.750  -9.000   0.000  1.00  0.00    -0.325 OA
HETATM    2 CL   UNL     1       5.946 -12.000   0.000  1.00  0.00    -0.091 Cl
HETATM    3  C   UNL     1       3.348  -9.000   0.000  1.00  0.00     0.102 A 
HETATM    4  C   UNL     1       4.647  -9.750   0.000  1.00  0.00     0.087 A 
HETATM    5  C   UNL     1       2.049  -9.750   0.000  1.00  0.00     0.091 A 
HETATM    6  C   UNL     1       4.647 -11.250   0.000  1.00  0.00     0.020 A 
HETATM    7  C   UNL     1       2.049 -11.250   0.000  1.00  0.00     0.058 A 
HETATM    8  C   UNL     1       3.348 -12.000   0.000  1.00  0.00     0.041 A 
HETATM    9  C   UNL     1       2.049  -6.750   0.000  1.00  0.00     0.189 A 
HETATM   10  O   UNL     1       3.348  -7.500   0.000  1.00  0.00    -0.293 OA
HETATM   11  C   UNL     1       0.750  -7.500   0.000  1.00  0.00     0.219 A 
ENDROOT
BRANCH   9  12
HETATM   12  N   UNL     1       2.049  -5.250   0.000  1.00  0.00    -0.228 NA
BRANCH  12  13
HETATM   13  C   UNL     1       3.348  -4.500   0.000  1.00  0.00     0.060 A 
HETATM   14  C   UNL     1       4.647  -5.250   0.000  1.00  0.00     0.046 A 
HETATM   15  C   UNL     1       5.946  -4.500   0.000  1.00  0.00     0.007 A 
HETATM   16  C   UNL     1       5.946  -3.000   0.000  1.00  0.00     0.005 A 
HETATM   17  C   UNL     1       4.647  -2.250   0.000  1.00  0.00     0.031 A 
HETATM   18  C   UNL     1       3.348  -3.000   0.000  1.00  0.00     0.030 A 
BRANCH  18  19
HETATM   19  C   UNL     1       2.049  -2.250   0.000  1.00  0.00     0.197 C 
HETATM   20  O   UNL     1       0.750  -3.000   0.000  1.00  0.00    -0.175 OA
HETATM   21  N   UNL     1       2.049  -0.750   0.000  1.00  0.00    -0.071 NA
ENDBRANCH  18  19
ENDBRANCH  12  13
ENDBRANCH   9  12
TORSDOF 3
