REMARK  2 active torsions:
REMARK  status: ('A' for Active; 'I' for Inactive)
REMARK    1  A    between atoms: N_12  and  C_13 
REMARK    2  A    between atoms: C_13  and  C_14 
ROOT
HETATM    1  C   UNL     1      -8.544  -0.750   0.000  1.00  0.00     0.045 A 
HETATM    2  C   UNL     1      -9.843  -1.500   0.000  1.00  0.00     0.007 A 
HETATM    3  C   UNL     1      -7.245  -1.500   0.000  1.00  0.00     0.057 A 
HETATM    4  C   UNL     1      -7.245  -3.000   0.000  1.00  0.00    -0.008 A 
HETATM    5  C   UNL     1      -9.843  -3.000   0.000  1.00  0.00     0.004 A 
HETATM    6  C   UNL     1      -8.544  -3.750   0.000  1.00  0.00     0.025 A 
HETATM    7  C   UNL     1     -11.142  -3.750   0.000  1.00  0.00     0.000 C 
HETATM    8  N   UNL     1      -5.946  -0.750   0.000  1.00  0.00    -0.210 NA
HETATM    9  C   UNL     1      -5.946  -3.750   0.000  1.00  0.00     0.129 A 
HETATM   10  C   UNL     1      -4.647  -1.500   0.000  1.00  0.00     0.278 A 
HETATM   11  O   UNL     1      -3.348  -0.750   0.000  1.00  0.00    -0.149 OA
HETATM   12  N   UNL     1      -4.647  -3.000   0.000  1.00  0.00    -0.309 N 
ENDROOT
BRANCH  12  13
HETATM   13  C   UNL     1      -3.348  -3.750   0.000  1.00  0.00     0.105 C 
BRANCH  13  14
HETATM   14  C   UNL     1      -2.049  -3.000   0.000  1.00  0.00     0.024 C 
HETATM   15  C   UNL     1      -0.750  -3.750   0.000  1.00  0.00     0.002 C 
ENDBRANCH  13  14
ENDBRANCH  12  13
TORSDOF 2
