REMARK  6 active torsions:
REMARK  status: ('A' for Active; 'I' for Inactive)
REMARK    1  A    between atoms: N_3  and  C_18 
REMARK    2  A    between atoms: C_18  and  C_22 
REMARK    3  A    between atoms: C_22  and  C_23 
REMARK    4  A    between atoms: C_23  and  C_24 
REMARK    5  A    between atoms: C_24  and  O_26 
REMARK    6  A    between atoms: O_26  and  C_27 
ROOT
HETATM    1  N   UNL     1      11.633  -1.817   0.000  1.00  0.00    -0.338 N 
HETATM    2  H   UNL     1      12.636  -0.703   0.000  1.00  0.00     0.200 HD
HETATM    3  N   UNL     1       8.774   0.707   0.000  1.00  0.00    -0.242 N 
HETATM    4  C   UNL     1       9.531  -3.031   0.000  1.00  0.00     0.085 A 
HETATM    5  C   UNL     1      10.141  -1.661   0.000  1.00  0.00     0.139 A 
HETATM    6  C   UNL     1      10.646  -4.035   0.000  1.00  0.00     0.001 A 
HETATM    7  C   UNL     1      11.945  -3.285   0.000  1.00  0.00     0.032 A 
HETATM    8  C   UNL     1      12.739   3.074   0.000  1.00  0.00     0.022 A 
HETATM    9  C   UNL     1      14.038   2.324   0.000  1.00  0.00     0.022 A 
HETATM   10  C   UNL     1      11.440   2.324   0.000  1.00  0.00     0.132 A 
HETATM   11  C   UNL     1      14.038   0.824   0.000  1.00  0.00    -0.054 A 
HETATM   12  C   UNL     1      11.440   0.824   0.000  1.00  0.00     0.036 A 
HETATM   13  C   UNL     1      12.739   0.074   0.000  1.00  0.00    -0.057 A 
HETATM   14  C   UNL     1      10.489  -5.527   0.000  1.00  0.00     0.033 C 
HETATM   15  C   UNL     1      13.315  -3.895   0.000  1.00  0.00     0.050 C 
HETATM   16  C   UNL     1       8.064  -3.343   0.000  1.00  0.00     0.024 C 
HETATM   17  N   UNL     1       6.596  -3.655   0.000  1.00  0.00    -0.096 N 
HETATM   18  S   UNL     1      10.141   3.074   0.000  1.00  0.00     0.247 S 
HETATM   19  O   UNL     1       8.842   3.824   0.000  1.00  0.00    -0.204 OA
HETATM   20  O   UNL     1      10.891   4.373   0.000  1.00  0.00    -0.204 OA
HETATM   21  C   UNL     1      15.337   0.074   0.000  1.00  0.00     0.025 C 
ENDROOT
BRANCH   3  22
HETATM   22  C   UNL     1       7.274   0.707   0.000  1.00  0.00     0.120 C 
BRANCH  22  23
HETATM   23  C   UNL     1       6.524   2.006   0.000  1.00  0.00     0.031 C 
BRANCH  23  24
HETATM   24  C   UNL     1       5.024   2.006   0.000  1.00  0.00     0.067 C 
BRANCH  24  25
HETATM   25  C   UNL     1       4.274   3.305   0.000  1.00  0.00     0.269 C 
HETATM   26  O   UNL     1       2.774   3.305   0.000  1.00  0.00    -0.190 OA
BRANCH  25  27
HETATM   27  O   UNL     1       5.024   4.604   0.000  1.00  0.00    -0.329 OA
BRANCH  27  28
HETATM   28  C   UNL     1       4.274   5.903   0.000  1.00  0.00     0.145 C 
HETATM   29  C   UNL     1       5.024   7.202   0.000  1.00  0.00     0.035 C 
ENDBRANCH  27  28
ENDBRANCH  25  27
ENDBRANCH  24  25
ENDBRANCH  23  24
ENDBRANCH  22  23
ENDBRANCH   3  22
TORSDOF 6
