REMARK  0 active torsions:
REMARK  status: ('A' for Active; 'I' for Inactive)
ROOT
HETATM    1  O   UNL     1      -3.998   0.585   0.000  1.00  0.00    -0.171 OA
HETATM    2  H   UNL     1      -1.644   2.104   0.000  1.00  0.00     0.169 HD
HETATM    3  N   UNL     1      -1.458   0.615   0.000  1.00  0.00    -0.318 N 
HETATM    4  N   UNL     1       0.476  -1.272   0.000  1.00  0.00    -0.295 N 
HETATM    5  C   UNL     1       1.146   1.060   0.000  1.00  0.00     0.084 A 
HETATM    6  C   UNL     1       2.389   0.221   0.000  1.00  0.00     0.002 A 
HETATM    7  C   UNL     1      -0.036   0.137   0.000  1.00  0.00     0.135 A 
HETATM    8  C   UNL     1       1.976  -1.220   0.000  1.00  0.00     0.040 A 
HETATM    9  C   UNL     1      -2.718  -0.198   0.000  1.00  0.00     0.192 A 
HETATM   10  C   UNL     1      -2.868  -1.690   0.000  1.00  0.00     0.047 A 
HETATM   11  C   UNL     1      -1.794  -2.738   0.000  1.00  0.00     0.023 A 
HETATM   12  C   UNL     1      -0.306  -2.552   0.000  1.00  0.00     0.081 A 
HETATM   13  C   UNL     1       1.094   2.559   0.000  1.00  0.00     0.024 C 
HETATM   14  N   UNL     1       1.042   4.059   0.000  1.00  0.00    -0.096 N 
HETATM   15  C   UNL     1       2.899  -2.403   0.000  1.00  0.00     0.050 C 
HETATM   16  C   UNL     1       3.799   0.734   0.000  1.00  0.00     0.033 C 
ENDROOT
TORSDOF 0
