REMARK  3 active torsions:
REMARK  status: ('A' for Active; 'I' for Inactive)
REMARK    1  A    between atoms: C_7  and  C_17 
REMARK    2  A    between atoms: C_8  and  C_18 
REMARK    3  A    between atoms: C_17  and  C_18 
ROOT
HETATM    1  C   UNL     1      -2.873  -2.525   0.000  1.00  0.00     0.030 C 
ENDROOT
BRANCH   1   2
HETATM    2  C   UNL     1      -2.873  -1.024   0.000  1.00  0.00    -0.020 A 
HETATM    3  C   UNL     1      -4.172  -0.275   0.000  1.00  0.00     0.104 A 
HETATM    4  C   UNL     1      -4.172   1.226   0.000  1.00  0.00     0.093 A 
HETATM    5  O   UNL     1      -5.471  -1.024   0.000  1.00  0.00    -0.327 OA
HETATM    6  C   UNL     1      -2.873   1.976   0.000  1.00  0.00     0.053 A 
HETATM    7  O   UNL     1      -5.471   1.976   0.000  1.00  0.00    -0.330 OA
HETATM    8  C   UNL     1      -1.574   1.226   0.000  1.00  0.00     0.011 A 
HETATM    9  C   UNL     1      -1.574  -0.275   0.000  1.00  0.00     0.025 A 
HETATM   10  C   UNL     1      -6.770   1.226   0.000  1.00  0.00     0.181 A 
HETATM   11  C   UNL     1      -6.770  -0.275   0.000  1.00  0.00     0.181 A 
ENDBRANCH   1   2
BRANCH   1  12
HETATM   12  C   UNL     1      -4.172  -3.275   0.000  1.00  0.00     0.049 C 
BRANCH  12  13
HETATM   13  C   UNL     1      -4.172  -4.774   0.000  1.00  0.00     0.050 A 
HETATM   14  N   UNL     1      -2.873  -5.524   0.000  1.00  0.00    -0.275 NA
HETATM   15  C   UNL     1      -2.873  -7.024   0.000  1.00  0.00     0.130 A 
HETATM   16  C   UNL     1      -4.172  -7.774   0.000  1.00  0.00     0.048 A 
HETATM   17  C   UNL     1      -5.471  -7.024   0.000  1.00  0.00    -0.045 A 
HETATM   18  C   UNL     1      -5.471  -5.524   0.000  1.00  0.00    -0.017 A 
HETATM   19  C   UNL     1      -6.770  -7.774   0.000  1.00  0.00     0.022 A 
HETATM   20  C   UNL     1      -6.770  -4.774   0.000  1.00  0.00     0.027 A 
HETATM   21  C   UNL     1      -8.069  -5.524   0.000  1.00  0.00     0.005 A 
HETATM   22  C   UNL     1      -8.069  -7.024   0.000  1.00  0.00     0.005 A 
ENDBRANCH  12  13
ENDBRANCH   1  12
TORSDOF 3
