REMARK  1 active torsions:
REMARK  status: ('A' for Active; 'I' for Inactive)
REMARK    1  A    between atoms: N_3  and  C_12 
ROOT
HETATM    1  S   UNL     1      -9.812  -2.898   0.000  1.00  0.00    -0.085 SA
HETATM    2  O   UNL     1      -4.988  -0.750   0.000  1.00  0.00    -0.169 OA
HETATM    3  N   UNL     1      -5.946  -3.245   0.000  1.00  0.00    -0.270 N 
HETATM    4  O   UNL     1      -7.628  -5.323   0.000  1.00  0.00    -0.170 OA
HETATM    5  C   UNL     1      -6.103  -1.754   0.000  1.00  0.00     0.218 A 
HETATM    6  C   UNL     1      -7.570  -1.442   0.000  1.00  0.00     0.133 A 
HETATM    7  C   UNL     1      -8.320  -2.741   0.000  1.00  0.00     0.093 A 
HETATM    8  C   UNL     1      -7.316  -3.856   0.000  1.00  0.00     0.207 A 
HETATM    9  C   UNL     1     -10.694  -1.684   0.000  1.00  0.00     0.021 A 
HETATM   10  C   UNL     1     -12.185  -1.841   0.000  1.00  0.00     0.034 A 
HETATM   11  C   UNL     1     -10.084  -0.314   0.000  1.00  0.00     0.061 A 
HETATM   12  C   UNL     1     -10.965   0.900   0.000  1.00  0.00     0.046 A 
HETATM   13  C   UNL     1     -13.067  -0.627   0.000  1.00  0.00     0.006 A 
HETATM   14  C   UNL     1     -12.457   0.743   0.000  1.00  0.00     0.007 A 
HETATM   15  N   UNL     1      -8.592  -0.157   0.000  1.00  0.00    -0.245 NA
ENDROOT
BRANCH   3  16
HETATM   16  C   UNL     1      -4.647  -3.995   0.000  1.00  0.00     0.029 A 
HETATM   17  C   UNL     1      -3.348  -3.245   0.000  1.00  0.00     0.078 A 
HETATM   18  C   UNL     1      -2.049  -3.995   0.000  1.00  0.00     0.048 A 
HETATM   19 CL   UNL     1      -0.750  -3.245   0.000  1.00  0.00    -0.086 Cl
HETATM   20  C   UNL     1      -2.049  -5.495   0.000  1.00  0.00     0.043 A 
HETATM   21 CL   UNL     1      -0.750  -6.245   0.000  1.00  0.00    -0.086 Cl
HETATM   22  C   UNL     1      -3.348  -6.245   0.000  1.00  0.00     0.044 A 
HETATM   23  C   UNL     1      -4.647  -5.495   0.000  1.00  0.00     0.046 A 
ENDBRANCH   3  16
TORSDOF 1
