REMARK  2 active torsions:
REMARK  status: ('A' for Active; 'I' for Inactive)
REMARK    1  A    between atoms: C_4  and  N_8 
REMARK    2  A    between atoms: N_8  and  C_9 
ROOT
HETATM    1 CL   UNL     1      -4.172  -7.774   0.000  1.00  0.00    -0.091 Cl
HETATM    2  C   UNL     1      -4.172  -3.275   0.000  1.00  0.00     0.042 A 
HETATM    3  C   UNL     1      -5.471  -4.024   0.000  1.00  0.00     0.011 A 
HETATM    4  C   UNL     1      -2.873  -4.024   0.000  1.00  0.00     0.044 A 
HETATM    5  C   UNL     1      -2.873  -5.524   0.000  1.00  0.00     0.075 A 
HETATM    6  C   UNL     1      -5.471  -5.524   0.000  1.00  0.00     0.034 A 
HETATM    7  C   UNL     1      -4.172  -6.274   0.000  1.00  0.00     0.019 A 
ENDROOT
BRANCH   4   8
HETATM    8  N   UNL     1      -1.573  -3.275   0.000  1.00  0.00    -0.230 NA
BRANCH   8   9
HETATM    9  C   UNL     1      -0.275  -4.024   0.000  1.00  0.00     0.206 C 
HETATM   10  S   UNL     1      -0.275  -5.524   0.000  1.00  0.00    -0.042 SA
HETATM   11  N   UNL     1       1.024  -3.275   0.000  1.00  0.00    -0.068 NA
ENDBRANCH   8   9
ENDBRANCH   4   8
TORSDOF 2
