REMARK  2 active torsions:
REMARK  status: ('A' for Active; 'I' for Inactive)
REMARK    1  A    between atoms: C_3  and  S_11 
REMARK    2  A    between atoms: C_5  and  N_10 
REMARK       I    between atoms: C_7  and  N_10 
ROOT
HETATM    1  C   UNL     1       4.071   6.449   0.000  1.00  0.00     0.023 A 
HETATM    2  C   UNL     1       2.772   5.699   0.000  1.00  0.00     0.043 A 
HETATM    3  C   UNL     1       5.370   5.699   0.000  1.00  0.00     0.116 A 
HETATM    4  C   UNL     1       5.370   4.199   0.000  1.00  0.00     0.023 A 
HETATM    5  C   UNL     1       2.772   4.199   0.000  1.00  0.00     0.039 A 
HETATM    6  C   UNL     1       4.071   3.449   0.000  1.00  0.00     0.043 A 
ENDROOT
BRANCH   3   7
HETATM    7  S   UNL     1       6.669   6.449   0.000  1.00  0.00     0.191 S 
HETATM    8  O   UNL     1       5.919   7.748   0.000  1.00  0.00    -0.216 OA
HETATM    9  S   UNL     1       6.669   9.449   0.000  1.00  0.00     0.013 SA
HETATM   10  C   UNL     1       7.968   8.699   0.000  1.00  0.00     0.203 A 
HETATM   11  C   UNL     1       6.669  10.949   0.000  1.00  0.00     0.097 C 
HETATM   12  N   UNL     1       7.968   7.199   0.000  1.00  0.00    -0.152 NA
HETATM   13  N   UNL     1       9.267   9.449   0.000  1.00  0.00    -0.070 NA
HETATM   14  O   UNL     1       7.419   5.149   0.000  1.00  0.00    -0.218 OA
ENDBRANCH   3   7
BRANCH   5  15
HETATM   15  N   UNL     1       1.473   3.449   0.000  1.00  0.00    -0.232 NA
HETATM   16  C   UNL     1       0.174   4.199   0.000  1.00  0.00     0.189 C 
HETATM   17  O   UNL     1       0.174   5.699   0.000  1.00  0.00    -0.174 OA
HETATM   18  C   UNL     1      -1.125   3.449   0.000  1.00  0.00     0.083 C 
ENDBRANCH   5  15
TORSDOF 2
