REMARK  3 active torsions:
REMARK  status: ('A' for Active; 'I' for Inactive)
REMARK    1  A    between atoms: C_10  and  C_13 
REMARK    2  A    between atoms: C_13  and  S_14 
REMARK    3  A    between atoms: S_14  and  C_15 
ROOT
HETATM    1  C   UNL     1     -11.624   4.941   0.000  1.00  0.00     0.048 A 
HETATM    2  C   UNL     1     -13.124   4.941   0.000  1.00  0.00     0.011 A 
HETATM    3  C   UNL     1     -13.874   3.642   0.000  1.00  0.00     0.024 A 
HETATM    4  C   UNL     1     -13.124   2.343   0.000  1.00  0.00    -0.027 A 
HETATM    5  C   UNL     1     -13.874   1.044   0.000  1.00  0.00     0.025 A 
HETATM    6  C   UNL     1     -13.124  -0.255   0.000  1.00  0.00     0.029 A 
HETATM    7  C   UNL     1     -11.624  -0.255   0.000  1.00  0.00     0.108 A 
HETATM    8  C   UNL     1     -11.624   2.343   0.000  1.00  0.00     0.067 A 
HETATM    9  N   UNL     1     -10.874   1.044   0.000  1.00  0.00    -0.315 N 
HETATM   10  C   UNL     1      -9.425   1.754   0.000  1.00  0.00     0.131 A 
HETATM   11  N   UNL     1      -9.425   3.254   0.000  1.00  0.00    -0.235 NA
HETATM   12  C   UNL     1     -10.874   3.642   0.000  1.00  0.00     0.075 A 
ENDROOT
BRANCH  10  13
HETATM   13  C   UNL     1      -8.152   0.960   0.000  1.00  0.00     0.121 C 
BRANCH  13  14
HETATM   14  S   UNL     1      -6.829   1.666   0.000  1.00  0.00    -0.133 SA
BRANCH  14  15
HETATM   15  C   UNL     1      -5.556   0.872   0.000  1.00  0.00     0.048 A 
HETATM   16  C   UNL     1      -5.607  -0.627   0.000  1.00  0.00     0.013 A 
HETATM   17  C   UNL     1      -4.334  -1.421   0.000  1.00  0.00     0.040 A 
HETATM   18  C   UNL     1      -3.010  -0.716   0.000  1.00  0.00     0.302 A 
HETATM   19  C   UNL     1      -2.959   0.784   0.000  1.00  0.00     0.040 A 
HETATM   20  N   UNL     1      -1.737  -1.509   0.000  1.00  0.00     0.616 N 
HETATM   21  C   UNL     1      -4.232   1.577   0.000  1.00  0.00     0.013 A 
ENDBRANCH  14  15
ENDBRANCH  13  14
ENDBRANCH  10  13
TORSDOF 3
