REMARK  3 active torsions:
REMARK  status: ('A' for Active; 'I' for Inactive)
REMARK    1  A    between atoms: C_2  and  N_11 
REMARK       I    between atoms: N_11  and  C_12 
REMARK    2  A    between atoms: C_12  and  C_14 
REMARK    3  A    between atoms: C_14  and  C_15 
ROOT
HETATM    1  C   UNL     1      -7.245  -0.750   0.000  1.00  0.00     0.063 A 
HETATM    2  C   UNL     1      -5.946  -1.500   0.000  1.00  0.00     0.043 A 
HETATM    3  C   UNL     1      -8.544  -1.500   0.000  1.00  0.00    -0.046 A 
HETATM    4  C   UNL     1      -9.843  -0.750   0.000  1.00  0.00     0.022 A 
HETATM    5  C   UNL     1     -11.142  -1.500   0.000  1.00  0.00     0.005 A 
HETATM    6  C   UNL     1      -5.946  -3.000   0.000  1.00  0.00     0.046 A 
HETATM    7  C   UNL     1      -8.544  -3.000   0.000  1.00  0.00    -0.051 A 
HETATM    8  C   UNL     1     -11.142  -3.000   0.000  1.00  0.00     0.005 A 
HETATM    9  C   UNL     1      -7.245  -3.750   0.000  1.00  0.00     0.027 A 
HETATM   10  C   UNL     1      -9.843  -3.750   0.000  1.00  0.00     0.021 A 
ENDROOT
BRANCH   2  11
HETATM   11  N   UNL     1      -4.647  -0.750   0.000  1.00  0.00    -0.232 NA
HETATM   12  C   UNL     1      -3.348  -1.500   0.000  1.00  0.00     0.191 C 
HETATM   13  O   UNL     1      -2.049  -0.750   0.000  1.00  0.00    -0.174 OA
BRANCH  12  14
HETATM   14  C   UNL     1      -3.348  -3.000   0.000  1.00  0.00     0.107 C 
BRANCH  14  15
HETATM   15  C   UNL     1      -2.049  -3.750   0.000  1.00  0.00     0.160 C 
HETATM   16  O   UNL     1      -0.750  -3.000   0.000  1.00  0.00    -0.223 OA
HETATM   17  C   UNL     1      -2.049  -5.250   0.000  1.00  0.00     0.036 C 
ENDBRANCH  14  15
ENDBRANCH  12  14
ENDBRANCH   2  11
TORSDOF 3
