REMARK  1 active torsions:
REMARK  status: ('A' for Active; 'I' for Inactive)
REMARK    1  A    between atoms: C_15  and  C_25 
ROOT
HETATM    1  N   UNL     1       3.348  -9.374   0.000  1.00  0.00    -0.289 N 
HETATM    2  S   UNL     1       5.946 -10.874   0.000  1.00  0.00    -0.089 SA
HETATM    3  N   UNL     1       3.348  -4.874   0.000  1.00  0.00    -0.335 N 
HETATM    4 CL   UNL     1       5.946  -4.874   0.000  1.00  0.00    -0.146 Cl
HETATM    5  C   UNL     1       2.049  -4.124   0.000  1.00  0.00     0.103 A 
HETATM    6  C   UNL     1       0.750  -4.874   0.000  1.00  0.00     0.029 A 
HETATM    7  C   UNL     1       0.750  -6.374   0.000  1.00  0.00     0.034 A 
HETATM    8  C   UNL     1       2.049  -7.124   0.000  1.00  0.00     0.036 A 
HETATM    9  C   UNL     1       3.348  -6.374   0.000  1.00  0.00     0.058 A 
HETATM   10  C   UNL     1       4.647  -7.124   0.000  1.00  0.00     0.038 A 
HETATM   11  C   UNL     1       4.647  -8.624   0.000  1.00  0.00     0.073 A 
HETATM   12  C   UNL     1       5.946  -6.374   0.000  1.00  0.00     0.029 A 
HETATM   13  C   UNL     1       7.245  -7.124   0.000  1.00  0.00     0.064 A 
HETATM   14  C   UNL     1       5.946  -9.374   0.000  1.00  0.00     0.042 A 
HETATM   15  C   UNL     1       7.245  -8.624   0.000  1.00  0.00    -0.009 A 
HETATM   16  C   UNL     1       2.049 -11.624   0.000  1.00  0.00     0.044 A 
HETATM   17  C   UNL     1       3.348 -10.874   0.000  1.00  0.00     0.045 A 
HETATM   18  C   UNL     1       2.049 -13.124   0.000  1.00  0.00     0.007 A 
HETATM   19  C   UNL     1       4.647 -11.624   0.000  1.00  0.00     0.019 A 
HETATM   20  C   UNL     1       3.348 -13.874   0.000  1.00  0.00     0.006 A 
HETATM   21  C   UNL     1       4.647 -13.124   0.000  1.00  0.00     0.034 A 
HETATM   22  C   UNL     1       2.049  -8.624   0.000  1.00  0.00     0.195 A 
HETATM   23  O   UNL     1       0.750  -9.374   0.000  1.00  0.00    -0.171 OA
HETATM   24  C   UNL     1       4.647  -4.124   0.000  1.00  0.00     0.187 A 
ENDROOT
BRANCH  15  25
HETATM   25  C   UNL     2       8.745  -8.249   0.000  1.00  0.00     0.032 A 
HETATM   26  C   UNL     2      10.044  -7.499   0.000  1.00  0.00     0.256 A 
HETATM   27  O   UNL     2      11.343  -8.249   0.000  1.00  0.00    -0.165 OA
HETATM   28  O   UNL     2      10.044  -5.999   0.000  1.00  0.00    -0.161 OA
HETATM   29  O   UNL     2      11.343  -9.749   0.000  1.00  0.00    -0.182 OA
HETATM   30  C   UNL     2      10.044 -10.499   0.000  1.00  0.00     0.306 A 
HETATM   31  C   UNL     2       8.745  -9.749   0.000  1.00  0.00     0.098 A 
HETATM   32  O   UNL     2      10.044 -11.999   0.000  1.00  0.00    -0.187 OA
ENDBRANCH  15  25
TORSDOF 1
