REMARK  1 active torsions:
REMARK  status: ('A' for Active; 'I' for Inactive)
REMARK    1  A    between atoms: C_5  and  C_7 
ROOT
HETATM    1  C   UNL     1       2.873   5.524   0.000  1.00  0.00     0.130 A 
HETATM    2  C   UNL     1       4.172   4.774   0.000  1.00  0.00     0.130 A 
HETATM    3  C   UNL     1       1.574   4.774   0.000  1.00  0.00     0.067 A 
HETATM    4  C   UNL     1       4.172   3.275   0.000  1.00  0.00     0.057 A 
HETATM    5  C   UNL     1       1.574   3.275   0.000  1.00  0.00     0.094 A 
HETATM    6  C   UNL     1       2.873   2.525   0.000  1.00  0.00     0.018 A 
HETATM    7  O   UNL     1       2.873   7.024   0.000  1.00  0.00    -0.193 OA
HETATM    8  O   UNL     1       5.471   5.524   0.000  1.00  0.00    -0.193 OA
ENDROOT
BRANCH   5   9
HETATM    9  C   UNL     1       0.275   2.525   0.000  1.00  0.00     0.185 C 
HETATM   10  O   UNL     1      -1.024   3.275   0.000  1.00  0.00    -0.647 OA
HETATM   11  O   UNL     1       0.275   1.024   0.000  1.00  0.00    -0.647 OA
ENDBRANCH   5   9
TORSDOF 1
