REMARK  2 active torsions:
REMARK  status: ('A' for Active; 'I' for Inactive)
REMARK    1  A    between atoms: C_10  and  C_11 
REMARK    2  A    between atoms: C_13  and  C_14 
ROOT
HETATM    1  N   UNL     1       2.375   7.405   0.000  1.00  0.00    -0.126 NA
HETATM    2  N   UNL     1       3.589   8.287   0.000  1.00  0.00    -0.101 NA
HETATM    3  N   UNL     1       4.339   5.979   0.000  1.00  0.00    -0.170 N 
HETATM    4  O   UNL     1       6.302   7.405   0.000  1.00  0.00    -0.253 OA
HETATM    5  N   UNL     1       5.552   5.097   0.000  1.00  0.00    -0.135 NA
HETATM    6  C   UNL     1       6.766   5.979   0.000  1.00  0.00     0.206 A 
HETATM    7  C   UNL     1       4.802   7.405   0.000  1.00  0.00     0.297 A 
HETATM    8  C   UNL     1       2.839   5.979   0.000  1.00  0.00     0.181 A 
ENDROOT
BRANCH   8   9
HETATM    9  C   UNL     1       1.957   4.765   0.000  1.00  0.00    -0.006 A 
HETATM   10  C   UNL     1       2.567   3.395   0.000  1.00  0.00     0.025 A 
HETATM   11  C   UNL     1       1.686   2.181   0.000  1.00  0.00     0.004 A 
HETATM   12  C   UNL     1       0.194   2.338   0.000  1.00  0.00     0.001 A 
HETATM   13  C   UNL     1      -0.416   3.708   0.000  1.00  0.00     0.004 A 
HETATM   14  C   UNL     1       0.465   4.922   0.000  1.00  0.00     0.025 A 
ENDBRANCH   8   9
BRANCH   6  15
HETATM   15  C   UNL     1       8.193   5.515   0.000  1.00  0.00     0.046 A 
HETATM   16  S   UNL     1       9.406   6.397   0.000  1.00  0.00    -0.114 SA
HETATM   17  C   UNL     1      10.620   5.515   0.000  1.00  0.00     0.062 A 
HETATM   18  C   UNL     1      10.156   4.088   0.000  1.00  0.00     0.017 A 
HETATM   19  C   UNL     1       8.656   4.088   0.000  1.00  0.00     0.037 A 
ENDBRANCH   6  15
TORSDOF 2
