REMARK  0 active torsions:
REMARK  status: ('A' for Active; 'I' for Inactive)
ROOT
HETATM    1 CL   UNL     1      -4.202   0.760   0.000  1.00  0.00    -0.059 Cl
HETATM    2 CL   UNL     1      -3.408  -2.132   0.000  1.00  0.00    -0.059 Cl
HETATM    3  N   UNL     1      -0.902  -1.444   0.000  1.00  0.00    -0.211 NA
HETATM    4  N   UNL     1      -1.697   1.449   0.000  1.00  0.00    -0.210 NA
HETATM    5  N   UNL     1       1.007   1.895   0.000  1.00  0.00    -0.211 NA
HETATM    6  N   UNL     1       1.650  -0.446   0.000  1.00  0.00    -0.299 N 
HETATM    7  C   UNL     1       3.677   0.889   0.000  1.00  0.00     0.066 A 
HETATM    8  C   UNL     1       2.179   0.958   0.000  1.00  0.00     0.123 A 
HETATM    9  C   UNL     1       4.074  -0.557   0.000  1.00  0.00     0.033 A 
HETATM   10  C   UNL     1       2.822  -1.382   0.000  1.00  0.00     0.109 A 
HETATM   11  C   UNL     1      -2.751   0.381   0.000  1.00  0.00     0.169 A 
HETATM   12  C   UNL     1      -2.354  -1.065   0.000  1.00  0.00     0.169 A 
HETATM   13  C   UNL     1      -0.246   1.070   0.000  1.00  0.00     0.199 A 
HETATM   14  C   UNL     1       0.152  -0.377   0.000  1.00  0.00     0.182 A 
ENDROOT
TORSDOF 0
