REMARK  1 active torsions:
REMARK  status: ('A' for Active; 'I' for Inactive)
REMARK    1  A    between atoms: C_8  and  C_10 
ROOT
HETATM    1  N   UNL     1      -6.153  -2.099   0.000  1.00  0.00    -0.229 NA
HETATM    2  N   UNL     1      -5.226  -4.952   0.000  1.00  0.00    -0.259 NA
HETATM    3  N   UNL     1      -3.472  -1.529   0.000  1.00  0.00    -0.230 N 
HETATM    4  N   UNL     1      -2.258  -2.410   0.000  1.00  0.00    -0.152 NA
HETATM    5  C   UNL     1      -4.686  -2.410   0.000  1.00  0.00     0.179 A 
HETATM    6  C   UNL     1      -4.222  -3.837   0.000  1.00  0.00     0.144 A 
HETATM    7  C   UNL     1      -2.722  -3.837   0.000  1.00  0.00     0.190 A 
HETATM    8  C   UNL     1      -7.156  -3.213   0.000  1.00  0.00     0.105 A 
HETATM    9  C   UNL     1      -6.693  -4.640   0.000  1.00  0.00     0.171 A 
HETATM   10  C   UNL     1      -3.472  -0.029   0.000  1.00  0.00     0.156 C 
HETATM   11  N   UNL     1      -1.840  -5.051   0.000  1.00  0.00    -0.076 NA
ENDROOT
BRANCH   8  12
HETATM   12  C   UNL     1      -8.624  -2.901   0.000  1.00  0.00     0.232 A 
HETATM   13 CL   UNL     1      -8.935  -4.369   0.000  1.00  0.00    -0.077 Cl
HETATM   14 CL   UNL     1     -10.091  -2.590   0.000  1.00  0.00    -0.077 Cl
HETATM   15 CL   UNL     1      -8.312  -1.434   0.000  1.00  0.00    -0.077 Cl
ENDBRANCH   8  12
TORSDOF 1
