REMARK  2 active torsions:
REMARK  status: ('A' for Active; 'I' for Inactive)
REMARK    1  A    between atoms: C_6  and  N_11 
REMARK       I    between atoms: C_8  and  N_11 
REMARK    2  A    between atoms: N_15  and  C_16 
ROOT
HETATM    1  N   UNL     1       5.946   2.250   0.000  1.00  0.00    -0.190 NA
HETATM    2  N   UNL     1       7.245   4.500   0.000  1.00  0.00    -0.286 N 
HETATM    3  O   UNL     1       8.544   2.250   0.000  1.00  0.00    -0.149 OA
HETATM    4  C   UNL     1       5.946   5.250   0.000  1.00  0.00     0.060 A 
HETATM    5  C   UNL     1       4.647   4.500   0.000  1.00  0.00     0.111 A 
HETATM    6  C   UNL     1       4.647   3.000   0.000  1.00  0.00     0.151 A 
HETATM    7  C   UNL     1       7.245   3.000   0.000  1.00  0.00     0.283 A 
HETATM    8  C   UNL     1       8.544   5.250   0.000  1.00  0.00     0.182 A 
HETATM    9  C   UNL     1       8.544   6.750   0.000  1.00  0.00     0.194 A 
HETATM   10  O   UNL     1       9.843   7.500   0.000  1.00  0.00    -0.174 OA
HETATM   11  N   UNL     1       7.245   7.500   0.000  1.00  0.00    -0.311 N 
HETATM   12  C   UNL     1       5.946   6.750   0.000  1.00  0.00     0.051 A 
HETATM   13  C   UNL     1       4.647   7.500   0.000  1.00  0.00     0.051 C 
ENDROOT
BRANCH   6  14
HETATM   14  N   UNL     1       3.348   2.250   0.000  1.00  0.00    -0.208 NA
HETATM   15  C   UNL     1       2.049   3.000   0.000  1.00  0.00     0.191 C 
HETATM   16  O   UNL     1       2.049   4.500   0.000  1.00  0.00    -0.174 OA
HETATM   17  C   UNL     1       0.750   2.250   0.000  1.00  0.00     0.083 C 
ENDBRANCH   6  14
BRANCH  11  18
HETATM   18  C   UNL     1       7.245   9.000   0.000  1.00  0.00     0.108 C 
HETATM   19  C   UNL     1       5.946   9.750   0.000  1.00  0.00     0.027 C 
ENDBRANCH  11  18
TORSDOF 2
