REMARK  2 active torsions:
REMARK  status: ('A' for Active; 'I' for Inactive)
REMARK    1  A    between atoms: C_5  and  C_11 
REMARK    2  A    between atoms: C_8  and  C_10 
ROOT
HETATM    1  H   UNL     1       2.049   3.750   0.000  1.00  0.00     0.188 HD
HETATM    2  N   UNL     1       3.348   3.000   0.000  1.00  0.00    -0.281 N 
HETATM    3  N   UNL     1       4.647   3.750   0.000  1.00  0.00    -0.173 NA
HETATM    4  O   UNL     1       7.245   0.750   0.000  1.00  0.00    -0.193 OA
HETATM    5  C   UNL     1       5.946   3.000   0.000  1.00  0.00     0.133 A 
HETATM    6  C   UNL     1       5.946   1.500   0.000  1.00  0.00     0.132 A 
HETATM    7  C   UNL     1       4.647   0.750   0.000  1.00  0.00     0.099 A 
HETATM    8  C   UNL     1       3.348   1.500   0.000  1.00  0.00     0.069 A 
ENDROOT
BRANCH   5   9
HETATM    9  C   UNL     1       7.245   3.750   0.000  1.00  0.00     0.231 C 
HETATM   10  O   UNL     1       8.544   3.000   0.000  1.00  0.00    -0.214 OA
ENDBRANCH   5   9
BRANCH   8  11
HETATM   11  C   UNL     1       2.049   0.750   0.000  1.00  0.00     0.223 C 
HETATM   12  O   UNL     1       0.750   1.500   0.000  1.00  0.00    -0.214 OA
ENDBRANCH   8  11
TORSDOF 2
