REMARK  5 active torsions:
REMARK  status: ('A' for Active; 'I' for Inactive)
REMARK    1  A    between atoms: C_2  and  O_20 
REMARK    2  A    between atoms: C_3  and  C_18 
REMARK    3  A    between atoms: C_8  and  O_13 
REMARK    4  A    between atoms: C_9  and  C_16 
REMARK    5  A    between atoms: C_16  and  C_18 
ROOT
HETATM    1  C   UNL     1      -8.169   0.851   0.000  1.00  0.00     0.148 C 
HETATM    2  O   UNL     1      -6.870   1.601   0.000  1.00  0.00    -0.189 OA
ENDROOT
BRANCH   1   3
HETATM    3  C   UNL     1      -9.468   1.601   0.000  1.00  0.00    -0.010 A 
HETATM    4  C   UNL     1      -9.468   3.100   0.000  1.00  0.00     0.077 A 
HETATM    5  C   UNL     1     -10.767   3.850   0.000  1.00  0.00     0.097 A 
HETATM    6  C   UNL     1     -12.066   3.100   0.000  1.00  0.00     0.127 A 
HETATM    7  C   UNL     1     -12.066   1.601   0.000  1.00  0.00     0.060 A 
HETATM    8  O   UNL     1     -13.365   3.850   0.000  1.00  0.00    -0.193 OA
HETATM    9  C   UNL     1     -10.767   0.851   0.000  1.00  0.00     0.032 A 
BRANCH   5  10
HETATM   10  O   UNL     1     -10.767   5.351   0.000  1.00  0.00    -0.330 OA
HETATM   11  C   UNL     1     -12.066   6.101   0.000  1.00  0.00     0.181 C 
ENDBRANCH   5  10
ENDBRANCH   1   3
BRANCH   1  12
HETATM   12  C   UNL     1      -8.169  -0.649   0.000  1.00  0.00     0.148 C 
HETATM   13  O   UNL     1      -9.468  -1.399   0.000  1.00  0.00    -0.189 OA
BRANCH  12  14
HETATM   14  C   UNL     1      -6.870  -1.399   0.000  1.00  0.00    -0.010 A 
HETATM   15  C   UNL     1      -5.571  -0.649   0.000  1.00  0.00     0.077 A 
HETATM   16  C   UNL     1      -4.272  -1.399   0.000  1.00  0.00     0.097 A 
HETATM   17  C   UNL     1      -4.272  -2.900   0.000  1.00  0.00     0.127 A 
HETATM   18  C   UNL     1      -5.571  -3.650   0.000  1.00  0.00     0.060 A 
HETATM   19  O   UNL     1      -2.973  -3.650   0.000  1.00  0.00    -0.193 OA
HETATM   20  C   UNL     1      -6.870  -2.900   0.000  1.00  0.00     0.032 A 
BRANCH  16  21
HETATM   21  O   UNL     1      -2.973  -0.649   0.000  1.00  0.00    -0.330 OA
HETATM   22  C   UNL     1      -1.674  -1.399   0.000  1.00  0.00     0.181 C 
ENDBRANCH  16  21
ENDBRANCH  12  14
ENDBRANCH   1  12
TORSDOF 5
