REMARK  7 active torsions:
REMARK  status: ('A' for Active; 'I' for Inactive)
REMARK    1  A    between atoms: C_1  and  O_22 
REMARK    2  A    between atoms: C_4  and  O_25 
REMARK    3  A    between atoms: C_5  and  C_20 
REMARK    4  A    between atoms: C_8  and  C_18 
REMARK    5  A    between atoms: C_9  and  O_13 
REMARK    6  A    between atoms: C_12  and  O_16 
REMARK    7  A    between atoms: C_18  and  C_20 
ROOT
HETATM    1  C   UNL     1      -4.821  -6.649   0.000  1.00  0.00     0.148 C 
HETATM    2  O   UNL     1      -4.821  -5.149   0.000  1.00  0.00    -0.189 OA
ENDROOT
BRANCH   1   3
HETATM    3  C   UNL     1      -6.120  -7.399   0.000  1.00  0.00    -0.004 A 
HETATM    4  C   UNL     1      -7.419  -6.649   0.000  1.00  0.00     0.078 A 
HETATM    5  C   UNL     1      -8.718  -7.399   0.000  1.00  0.00     0.103 A 
HETATM    6  C   UNL     1      -8.718  -8.899   0.000  1.00  0.00     0.168 A 
HETATM    7  C   UNL     1      -7.419  -9.649   0.000  1.00  0.00     0.103 A 
HETATM    8  O   UNL     1     -10.017  -9.649   0.000  1.00  0.00    -0.187 OA
HETATM    9  C   UNL     1      -6.120  -8.899   0.000  1.00  0.00     0.078 A 
BRANCH   5  10
HETATM   10  O   UNL     1     -10.017  -6.649   0.000  1.00  0.00    -0.330 OA
HETATM   11  C   UNL     1     -11.316  -7.399   0.000  1.00  0.00     0.181 C 
ENDBRANCH   5  10
BRANCH   7  12
HETATM   12  O   UNL     1      -7.419 -11.149   0.000  1.00  0.00    -0.330 OA
HETATM   13  C   UNL     1      -8.718 -11.899   0.000  1.00  0.00     0.181 C 
ENDBRANCH   7  12
ENDBRANCH   1   3
BRANCH   1  14
HETATM   14  C   UNL     1      -3.522  -7.399   0.000  1.00  0.00     0.148 C 
HETATM   15  O   UNL     1      -3.522  -8.899   0.000  1.00  0.00    -0.189 OA
BRANCH  14  16
HETATM   16  C   UNL     1      -2.223  -6.649   0.000  1.00  0.00    -0.004 A 
HETATM   17  C   UNL     1      -2.223  -5.149   0.000  1.00  0.00     0.078 A 
HETATM   18  C   UNL     1      -0.924  -4.399   0.000  1.00  0.00     0.103 A 
HETATM   19  C   UNL     1       0.375  -5.149   0.000  1.00  0.00     0.168 A 
HETATM   20  C   UNL     1       0.375  -6.649   0.000  1.00  0.00     0.103 A 
HETATM   21  O   UNL     1       1.674  -4.399   0.000  1.00  0.00    -0.187 OA
HETATM   22  C   UNL     1      -0.924  -7.399   0.000  1.00  0.00     0.078 A 
BRANCH  18  23
HETATM   23  O   UNL     1      -0.924  -2.900   0.000  1.00  0.00    -0.330 OA
HETATM   24  C   UNL     1      -2.223  -2.150   0.000  1.00  0.00     0.181 C 
ENDBRANCH  18  23
BRANCH  20  25
HETATM   25  O   UNL     1       1.674  -7.399   0.000  1.00  0.00    -0.330 OA
HETATM   26  C   UNL     1       2.973  -6.649   0.000  1.00  0.00     0.181 C 
ENDBRANCH  20  25
ENDBRANCH  14  16
ENDBRANCH   1  14
TORSDOF 7
