REMARK  10 active torsions:
REMARK  status: ('A' for Active; 'I' for Inactive)
REMARK    1  A    between atoms: O_1  and  C_11 
REMARK    2  A    between atoms: O_1  and  C_19 
REMARK    3  A    between atoms: O_2  and  C_15 
REMARK    4  A    between atoms: O_2  and  C_21 
REMARK    5  A    between atoms: C_4  and  C_19 
REMARK    6  A    between atoms: C_4  and  C_21 
REMARK    7  A    between atoms: C_9  and  C_23 
REMARK    8  A    between atoms: C_9  and  C_25 
REMARK    9  A    between atoms: C_23  and  O_27 
REMARK   10  A    between atoms: C_25  and  O_29 
ROOT
HETATM    1  O   UNL     1      -8.740  -0.043   0.000  1.00  0.00    -0.224 OA
HETATM    2  C   UNL     1      -8.478   4.089   0.000  1.00  0.00     0.112 A 
HETATM    3  C   UNL     1      -7.108   3.479   0.000  1.00  0.00     0.013 A 
HETATM    4  C   UNL     1      -8.322   2.598   0.000  1.00  0.00     0.041 A 
HETATM    5  C   UNL     1      -5.894   2.598   0.000  1.00  0.00     0.013 A 
HETATM    6  C   UNL     1      -6.358   1.171   0.000  1.00  0.00     0.041 A 
HETATM    7  C   UNL     1      -4.891   1.483   0.000  1.00  0.00     0.112 A 
HETATM    8  C   UNL     1      -7.858   1.171   0.000  1.00  0.00     0.153 A 
ENDROOT
BRANCH   2   9
HETATM    9  C   UNL     1      -9.975   4.194   0.000  1.00  0.00     0.274 C 
HETATM   10  O   UNL     1     -10.632   5.542   0.000  1.00  0.00    -0.190 OA
BRANCH   9  11
HETATM   11  O   UNL     1     -10.813   2.950   0.000  1.00  0.00    -0.334 OA
BRANCH  11  12
HETATM   12  C   UNL     1     -12.310   3.055   0.000  1.00  0.00     0.096 C 
HETATM   13  C   UNL     1     -12.205   4.551   0.000  1.00  0.00     0.030 C 
HETATM   14  C   UNL     1     -13.806   3.160   0.000  1.00  0.00     0.030 C 
HETATM   15  C   UNL     1     -12.414   1.559   0.000  1.00  0.00     0.030 C 
ENDBRANCH  11  12
ENDBRANCH   9  11
ENDBRANCH   2   9
BRANCH   2  16
HETATM   16  C   UNL     1      -8.115   5.545   0.000  1.00  0.00     0.274 C 
HETATM   17  O   UNL     1      -6.673   5.958   0.000  1.00  0.00    -0.190 OA
BRANCH  16  18
HETATM   18  O   UNL     1      -9.194   6.587   0.000  1.00  0.00    -0.334 OA
BRANCH  18  19
HETATM   19  C   UNL     1      -8.832   8.042   0.000  1.00  0.00     0.096 C 
HETATM   20  C   UNL     1      -7.376   7.679   0.000  1.00  0.00     0.030 C 
HETATM   21  C   UNL     1      -8.469   9.498   0.000  1.00  0.00     0.030 C 
HETATM   22  C   UNL     1     -10.287   8.405   0.000  1.00  0.00     0.030 C 
ENDBRANCH  18  19
ENDBRANCH  16  18
ENDBRANCH   2  16
BRANCH   7  23
HETATM   23  C   UNL     1      -4.329   0.092   0.000  1.00  0.00     0.274 C 
HETATM   24  O   UNL     1      -2.844  -0.117   0.000  1.00  0.00    -0.190 OA
BRANCH  23  25
HETATM   25  O   UNL     1      -5.252  -1.090   0.000  1.00  0.00    -0.326 OA
HETATM   26  C   UNL     1      -4.690  -2.481   0.000  1.00  0.00     0.177 C 
ENDBRANCH  23  25
ENDBRANCH   7  23
BRANCH   7  27
HETATM   27  C   UNL     1      -3.619   2.278   0.000  1.00  0.00     0.274 C 
HETATM   28  O   UNL     1      -2.294   1.573   0.000  1.00  0.00    -0.190 OA
BRANCH  27  29
HETATM   29  O   UNL     1      -3.671   3.777   0.000  1.00  0.00    -0.326 OA
HETATM   30  C   UNL     1      -4.995   4.481   0.000  1.00  0.00     0.177 C 
ENDBRANCH  27  29
ENDBRANCH   7  27
TORSDOF 10
