REMARK  1 active torsions:
REMARK  status: ('A' for Active; 'I' for Inactive)
REMARK    1  A    between atoms: C_5  and  C_12 
ROOT
HETATM    1  C   UNL     1      -2.049  -2.250   0.000  1.00  0.00     0.007 A 
HETATM    2  C   UNL     1      -4.647  -2.250   0.000  1.00  0.00    -0.043 A 
HETATM    3  C   UNL     1      -0.750  -3.000   0.000  1.00  0.00     0.001 A 
HETATM    4  C   UNL     1      -3.348  -3.000   0.000  1.00  0.00     0.019 A 
HETATM    5  C   UNL     1      -5.946  -3.000   0.000  1.00  0.00     0.005 A 
HETATM    6  C   UNL     1      -0.750  -4.500   0.000  1.00  0.00     0.000 A 
HETATM    7  C   UNL     1      -3.348  -4.500   0.000  1.00  0.00     0.008 A 
HETATM    8  C   UNL     1      -5.946  -4.500   0.000  1.00  0.00    -0.043 A 
HETATM    9  C   UNL     1      -2.049  -5.250   0.000  1.00  0.00     0.001 A 
HETATM   10  C   UNL     1      -4.647  -5.250   0.000  1.00  0.00     0.022 A 
HETATM   11  C   UNL     1      -7.245  -5.250   0.000  1.00  0.00     0.026 C 
HETATM   12  C   UNL     1      -3.348  -1.500   0.000  1.00  0.00     0.022 A 
HETATM   13  C   UNL     1      -1.299  -0.951   0.000  1.00  0.00     0.001 C 
ENDROOT
BRANCH   5  14
HETATM   14  C   UNL     1      -7.245  -2.250   0.000  1.00  0.00     0.108 C 
HETATM   15  O   UNL     1      -7.245  -0.750   0.000  1.00  0.00    -0.195 OA
HETATM   16  C   UNL     1      -8.544  -3.000   0.000  1.00  0.00     0.061 C 
ENDBRANCH   5  14
TORSDOF 1
