REMARK  6 active torsions:
REMARK  status: ('A' for Active; 'I' for Inactive)
REMARK    1  A    between atoms: N_2  and  C_19 
REMARK    2  A    between atoms: C_6  and  N_20 
REMARK    3  A    between atoms: C_9  and  C_22 
REMARK    4  A    between atoms: C_13  and  C_19 
REMARK    5  A    between atoms: N_20  and  N_21 
REMARK    6  A    between atoms: N_21  and  C_22 
ROOT
HETATM    1  N   UNL     1      -6.535   7.718   0.000  1.00  0.00     0.039 NA
HETATM    2  N   UNL     1      -8.034   7.718   0.000  1.00  0.00    -0.184 N 
HETATM    3  N   UNL     1      -6.071   6.291   0.000  1.00  0.00     0.037 NA
HETATM    4  N   UNL     1      -8.498   6.291   0.000  1.00  0.00    -0.110 N 
HETATM    5  H   UNL     1      -9.925   5.828   0.000  1.00  0.00     0.207 HD
HETATM    6  C   UNL     1      -7.285   5.410   0.000  1.00  0.00     0.775 A 
ENDROOT
BRANCH   6   7
HETATM    7  N   UNL     1      -7.285   3.910   0.000  1.00  0.00     0.042 NA
BRANCH   7   8
HETATM    8  N   UNL     1      -5.986   3.160   0.000  1.00  0.00    -0.159 NA
BRANCH   8   9
HETATM    9  C   UNL     1      -5.986   1.660   0.000  1.00  0.00     0.150 C 
BRANCH   9  10
HETATM   10  C   UNL     1      -4.686   0.910   0.000  1.00  0.00     0.026 A 
HETATM   11  C   UNL     1      -3.387   1.660   0.000  1.00  0.00     0.002 A 
HETATM   12  C   UNL     1      -2.088   0.910   0.000  1.00  0.00     0.000 A 
HETATM   13  C   UNL     1      -2.088  -0.590   0.000  1.00  0.00     0.000 A 
HETATM   14  C   UNL     1      -3.387  -1.340   0.000  1.00  0.00     0.000 A 
HETATM   15  C   UNL     1      -4.686  -0.590   0.000  1.00  0.00     0.002 A 
ENDBRANCH   9  10
ENDBRANCH   8   9
ENDBRANCH   7   8
ENDBRANCH   6   7
BRANCH   2  16
HETATM   16  C   UNL     1      -8.916   8.931   0.000  1.00  0.00     0.143 C 
BRANCH  16  17
HETATM   17  C   UNL     1     -10.408   8.775   0.000  1.00  0.00     0.026 A 
HETATM   18  C   UNL     1     -11.018   7.404   0.000  1.00  0.00     0.002 A 
HETATM   19  C   UNL     1     -12.510   7.248   0.000  1.00  0.00     0.000 A 
HETATM   20  C   UNL     1     -13.392   8.461   0.000  1.00  0.00     0.000 A 
HETATM   21  C   UNL     1     -12.781   9.832   0.000  1.00  0.00     0.000 A 
HETATM   22  C   UNL     1     -11.290   9.988   0.000  1.00  0.00     0.002 A 
ENDBRANCH  16  17
ENDBRANCH   2  16
TORSDOF 6
