REMARK  4 active torsions:
REMARK  status: ('A' for Active; 'I' for Inactive)
REMARK    1  A    between atoms: N_1  and  C_15 
REMARK    2  A    between atoms: C_15  and  C_16 
REMARK    3  A    between atoms: C_16  and  O_17 
REMARK    4  A    between atoms: O_17  and  C_18 
ROOT
HETATM    1  N   UNL     1       4.647  -7.489   0.000  1.00  0.00    -0.331 N 
HETATM    2  S   UNL     1       4.647 -10.489   0.000  1.00  0.00    -0.091 SA
HETATM    3  N   UNL     1       8.544  -9.739   0.000  1.00  0.00    -0.290 NA
HETATM    4  C   UNL     1       7.245  -7.489   0.000  1.00  0.00     0.070 A 
HETATM    5  C   UNL     1       5.946  -8.239   0.000  1.00  0.00     0.043 A 
HETATM    6  C   UNL     1       8.544  -8.239   0.000  1.00  0.00     0.127 A 
HETATM    7  C   UNL     1       5.946  -9.739   0.000  1.00  0.00     0.043 A 
HETATM    8  C   UNL     1       7.245 -10.489   0.000  1.00  0.00     0.154 A 
HETATM    9  C   UNL     1       2.049  -7.489   0.000  1.00  0.00     0.044 A 
HETATM   10  C   UNL     1       3.348  -8.239   0.000  1.00  0.00     0.039 A 
HETATM   11  C   UNL     1       0.750  -8.239   0.000  1.00  0.00     0.007 A 
HETATM   12  C   UNL     1       3.348  -9.739   0.000  1.00  0.00     0.019 A 
HETATM   13  C   UNL     1       0.750  -9.739   0.000  1.00  0.00     0.006 A 
HETATM   14  C   UNL     1       2.049 -10.489   0.000  1.00  0.00     0.034 A 
ENDROOT
BRANCH   1  15
HETATM   15  C   UNL     1       4.647  -5.989   0.000  1.00  0.00     0.138 C 
BRANCH  15  16
HETATM   16  C   UNL     1       5.946  -5.239   0.000  1.00  0.00     0.170 C 
BRANCH  16  17
HETATM   17  O   UNL     1       5.946  -3.739   0.000  1.00  0.00    -0.327 OA
BRANCH  17  18
HETATM   18  C   UNL     1       4.647  -2.989   0.000  1.00  0.00     0.270 C 
HETATM   19  O   UNL     1       4.647  -1.489   0.000  1.00  0.00    -0.190 OA
HETATM   20  C   UNL     1       3.348  -3.739   0.000  1.00  0.00     0.070 C 
ENDBRANCH  17  18
ENDBRANCH  16  17
ENDBRANCH  15  16
ENDBRANCH   1  15
TORSDOF 4
