REMARK  2 active torsions:
REMARK  status: ('A' for Active; 'I' for Inactive)
REMARK    1  A    between atoms: C_4  and  C_13 
REMARK    2  A    between atoms: C_9  and  C_13 
ROOT
HETATM    1  C   UNL     1      -3.348  -2.077   0.000  1.00  0.00     0.003 A 
HETATM    2  C   UNL     1      -2.049  -2.827   0.000  1.00  0.00     0.033 A 
HETATM    3  C   UNL     1      -4.647  -2.827   0.000  1.00  0.00     0.004 A 
HETATM    4  C   UNL     1      -2.049  -4.327   0.000  1.00  0.00     0.152 A 
HETATM    5  C   UNL     1      -4.647  -4.327   0.000  1.00  0.00     0.003 A 
HETATM    6  C   UNL     1      -3.348  -5.077   0.000  1.00  0.00     0.033 A 
HETATM    7  O   UNL     1      -0.750  -5.077   0.000  1.00  0.00    -0.224 OA
ENDROOT
BRANCH   3   8
HETATM    8  C   UNL     1      -5.946  -2.077   0.000  1.00  0.00     0.026 C 
BRANCH   8   9
HETATM    9  C   UNL     1      -7.245  -2.827   0.000  1.00  0.00     0.007 A 
HETATM   10  C   UNL     1      -8.616  -2.217   0.000  1.00  0.00     0.220 A 
HETATM   11  O   UNL     1      -9.619  -3.332   0.000  1.00  0.00    -0.309 OA
HETATM   12  O   UNL     1      -8.927  -0.750   0.000  1.00  0.00    -0.164 OA
HETATM   13  C   UNL     1      -8.869  -4.631   0.000  1.00  0.00     0.155 A 
HETATM   14  C   UNL     1      -7.402  -4.319   0.000  1.00  0.00     0.059 A 
ENDBRANCH   8   9
ENDBRANCH   3   8
TORSDOF 2
