REMARK  6 active torsions:
REMARK  status: ('A' for Active; 'I' for Inactive)
REMARK    1  A    between atoms: O_1  and  C_20 
REMARK    2  A    between atoms: O_1  and  C_22 
REMARK    3  A    between atoms: N_2  and  C_24 
REMARK    4  A    between atoms: C_7  and  C_20 
REMARK    5  A    between atoms: C_11  and  O_18 
REMARK    6  A    between atoms: C_22  and  C_24 
ROOT
HETATM    1  C   UNL     1       7.520   2.525   0.000  1.00  0.00     0.080 A 
HETATM    2  C   UNL     1       7.520   1.024   0.000  1.00  0.00     0.018 A 
HETATM    3  C   UNL     1       6.221   3.275   0.000  1.00  0.00     0.100 A 
HETATM    4  C   UNL     1       6.221   0.275   0.000  1.00  0.00     0.080 A 
HETATM    5  C   UNL     1       4.922   2.525   0.000  1.00  0.00     0.131 A 
HETATM    6  C   UNL     1       4.922   1.024   0.000  1.00  0.00     0.100 A 
HETATM    7  O   UNL     1       6.221   4.774   0.000  1.00  0.00    -0.330 OA
HETATM    8  C   UNL     1       4.922   5.524   0.000  1.00  0.00     0.181 A 
HETATM    9  O   UNL     1       3.623   3.275   0.000  1.00  0.00    -0.325 OA
HETATM   10  C   UNL     1       3.623   4.774   0.000  1.00  0.00     0.181 A 
ENDROOT
BRANCH   2  11
HETATM   11  C   UNL     1       8.819   0.275   0.000  1.00  0.00     0.221 C 
HETATM   12  O   UNL     1      10.118   1.024   0.000  1.00  0.00    -0.164 OA
BRANCH  11  13
HETATM   13  O   UNL     1       8.819  -1.226   0.000  1.00  0.00    -0.310 OA
BRANCH  13  14
HETATM   14  C   UNL     1      10.118  -1.976   0.000  1.00  0.00     0.145 C 
HETATM   15  C   UNL     1      11.417  -1.226   0.000  1.00  0.00     0.035 C 
BRANCH  14  16
HETATM   16  C   UNL     1      10.118  -3.475   0.000  1.00  0.00     0.128 C 
BRANCH  16  17
HETATM   17  N   UNL     1      11.417  -4.226   0.000  1.00  0.00    -0.362 N 
HETATM   18  C   UNL     1      12.716  -3.475   0.000  1.00  0.00     0.130 A 
HETATM   19  C   UNL     1      14.015  -4.226   0.000  1.00  0.00     0.166 A 
HETATM   20  O   UNL     1      14.015  -5.726   0.000  1.00  0.00    -0.350 OA
HETATM   21  C   UNL     1      12.716  -6.476   0.000  1.00  0.00     0.166 A 
HETATM   22  C   UNL     1      11.417  -5.726   0.000  1.00  0.00     0.130 A 
ENDBRANCH  16  17
ENDBRANCH  14  16
ENDBRANCH  13  14
ENDBRANCH  11  13
ENDBRANCH   2  11
BRANCH   6  23
HETATM   23  O   UNL     1       3.623   0.275   0.000  1.00  0.00    -0.330 OA
HETATM   24  C   UNL     1       2.324   1.024   0.000  1.00  0.00     0.181 C 
ENDBRANCH   6  23
TORSDOF 6
