REMARK  3 active torsions:
REMARK  status: ('A' for Active; 'I' for Inactive)
REMARK    1  A    between atoms: O_5  and  C_10 
REMARK    2  A    between atoms: O_5  and  C_11 
REMARK    3  A    between atoms: C_8  and  C_10 
ROOT
HETATM    1  C   UNL     1       6.980   8.234   0.000  1.00  0.00    -0.125 C 
HETATM    2  C   UNL     1       5.480   8.234   0.000  1.00  0.00     0.167 C 
HETATM    3  C   UNL     1       4.730   9.533   0.000  1.00  0.00     0.046 C 
HETATM    4  C   UNL     1       8.480   8.234   0.000  1.00  0.00     0.078 C 
ENDROOT
BRANCH   2   5
HETATM    5  O   UNL     1       4.730   6.935   0.000  1.00  0.00    -0.342 OA
BRANCH   5   6
HETATM    6  C   UNL     1       3.230   6.935   0.000  1.00  0.00     0.175 C 
BRANCH   6   7
HETATM    7  C   UNL     1       2.480   5.636   0.000  1.00  0.00     0.175 A 
HETATM    8  O   UNL     1       3.090   4.266   0.000  1.00  0.00    -0.306 OA
HETATM    9  C   UNL     1       1.976   3.262   0.000  1.00  0.00     0.212 A 
HETATM   10  S   UNL     1       2.132   1.770   0.000  1.00  0.00    -0.033 SA
HETATM   11  N   UNL     1       0.677   4.012   0.000  1.00  0.00    -0.344 N 
HETATM   12  H   UNL     1      -0.694   3.402   0.000  1.00  0.00     0.163 HD
HETATM   13  C   UNL     1       0.989   5.479   0.000  1.00  0.00     0.133 A 
ENDBRANCH   6   7
ENDBRANCH   5   6
ENDBRANCH   2   5
TORSDOF 3
