REMARK  0 active torsions:
REMARK  status: ('A' for Active; 'I' for Inactive)
ROOT
HETATM    1  N   UNL     1       0.750   4.140   0.000  1.00  0.00    -0.287 NA
HETATM    2  N   UNL     1       3.348   2.640   0.000  1.00  0.00    -0.308 N 
HETATM    3  N   UNL     1       5.656   3.390   0.000  1.00  0.00    -0.347 N 
HETATM    4  H   UNL     1       7.156   3.390   0.000  1.00  0.00     0.163 HD
HETATM    5  S   UNL     1       5.238   0.750   0.000  1.00  0.00    -0.041 SA
HETATM    6  C   UNL     1       4.775   4.604   0.000  1.00  0.00     0.142 A 
HETATM    7  C   UNL     1       3.348   4.140   0.000  1.00  0.00     0.063 A 
HETATM    8  C   UNL     1       2.049   4.890   0.000  1.00  0.00     0.161 A 
HETATM    9  C   UNL     1       4.775   2.177   0.000  1.00  0.00     0.176 A 
HETATM   10  C   UNL     1       0.750   2.640   0.000  1.00  0.00     0.145 A 
HETATM   11  C   UNL     1       2.049   1.890   0.000  1.00  0.00     0.134 A 
ENDROOT
TORSDOF 0
