REMARK  0 active torsions:
REMARK  status: ('A' for Active; 'I' for Inactive)
ROOT
HETATM    1  O   UNL     1       4.679   4.395   0.000  1.00  0.00    -0.188 OA
HETATM    2  O   UNL     1       6.817   4.247   0.000  1.00  0.00    -0.163 OA
HETATM    3  O   UNL     1       8.117   1.997   0.000  1.00  0.00    -0.280 OA
HETATM    4  O   UNL     1       9.416  -0.253   0.000  1.00  0.00    -0.189 OA
HETATM    5  C   UNL     1       6.817   2.747   0.000  1.00  0.00     0.232 A 
HETATM    6  C   UNL     1       5.519   1.997   0.000  1.00  0.00     0.073 A 
HETATM    7  C   UNL     1       4.346   2.932   0.000  1.00  0.00     0.160 A 
HETATM    8  C   UNL     1       2.883   2.598   0.000  1.00  0.00     0.156 A 
HETATM    9  C   UNL     1       5.519   0.497   0.000  1.00  0.00    -0.011 A 
HETATM   10  C   UNL     1       2.232   1.247   0.000  1.00  0.00     0.029 A 
HETATM   11  C   UNL     1       4.346  -0.438   0.000  1.00  0.00    -0.004 A 
HETATM   12  C   UNL     1       6.817  -0.253   0.000  1.00  0.00     0.091 A 
HETATM   13  C   UNL     1       8.117   0.497   0.000  1.00  0.00     0.279 A 
HETATM   14  C   UNL     1       2.883  -0.104   0.000  1.00  0.00     0.002 A 
HETATM   15  O   UNL     1       1.948   3.771   0.000  1.00  0.00    -0.188 OA
ENDROOT
TORSDOF 0
