REMARK  3 active torsions:
REMARK  status: ('A' for Active; 'I' for Inactive)
REMARK    1  A    between atoms: C_5  and  O_18 
REMARK    2  A    between atoms: C_10  and  C_11 
REMARK    3  A    between atoms: O_18  and  C_19 
ROOT
HETATM    1  O   UNL     1      -5.946  -0.750   0.000  1.00  0.00    -0.289 OA
HETATM    2  O   UNL     1      -3.348  -0.750   0.000  1.00  0.00    -0.163 OA
HETATM    3  C   UNL     1      -8.544  -0.750   0.000  1.00  0.00     0.081 A 
HETATM    4  C   UNL     1      -7.245  -1.500   0.000  1.00  0.00     0.075 A 
HETATM    5  C   UNL     1      -9.843  -1.500   0.000  1.00  0.00     0.125 A 
HETATM    6  C   UNL     1      -7.245  -3.000   0.000  1.00  0.00    -0.021 A 
HETATM    7  C   UNL     1      -9.843  -3.000   0.000  1.00  0.00     0.035 A 
HETATM    8  C   UNL     1      -5.946  -3.750   0.000  1.00  0.00     0.053 A 
HETATM    9  C   UNL     1      -4.647  -1.500   0.000  1.00  0.00     0.228 A 
HETATM   10  C   UNL     1      -4.647  -3.000   0.000  1.00  0.00     0.023 A 
HETATM   11  C   UNL     1      -8.544  -3.750   0.000  1.00  0.00     0.026 A 
ENDROOT
BRANCH  10  12
HETATM   12  C   UNL     1      -3.348  -3.750   0.000  1.00  0.00    -0.044 A 
HETATM   13  C   UNL     1      -3.348  -5.250   0.000  1.00  0.00     0.022 A 
HETATM   14  C   UNL     1      -2.049  -6.000   0.000  1.00  0.00     0.004 A 
HETATM   15  C   UNL     1      -0.750  -5.250   0.000  1.00  0.00     0.001 A 
HETATM   16  C   UNL     1      -0.750  -3.750   0.000  1.00  0.00     0.004 A 
HETATM   17  C   UNL     1      -2.049  -3.000   0.000  1.00  0.00     0.022 A 
ENDBRANCH  10  12
BRANCH   5  18
HETATM   18  O   UNL     1     -11.142  -0.750   0.000  1.00  0.00    -0.331 OA
BRANCH  18  19
HETATM   19  C   UNL     1     -12.441  -1.500   0.000  1.00  0.00     0.269 C 
HETATM   20  O   UNL     1     -13.740  -0.750   0.000  1.00  0.00    -0.190 OA
HETATM   21  C   UNL     1     -12.441  -3.000   0.000  1.00  0.00     0.070 C 
ENDBRANCH  18  19
ENDBRANCH   5  18
TORSDOF 3
