REMARK  1 active torsions:
REMARK  status: ('A' for Active; 'I' for Inactive)
REMARK    1  A    between atoms: C_5  and  N_15 
ROOT
HETATM    1  O   UNL     1      -6.973  -2.249   0.000  1.00  0.00    -0.248 OA
HETATM    2  S   UNL     1      -6.510  -3.675   0.000  1.00  0.00     0.080 S 
HETATM    3  C   UNL     1      -3.784  -3.389   0.000  1.00  0.00     0.081 A 
HETATM    4  C   UNL     1      -5.083  -4.139   0.000  1.00  0.00     0.039 A 
HETATM    5  C   UNL     1      -2.485  -4.139   0.000  1.00  0.00     0.087 A 
HETATM    6  C   UNL     1      -2.485  -5.639   0.000  1.00  0.00     0.051 A 
HETATM    7  C   UNL     1      -5.083  -5.639   0.000  1.00  0.00    -0.021 A 
HETATM    8  C   UNL     1      -3.784  -6.389   0.000  1.00  0.00     0.032 A 
HETATM    9  C   UNL     1      -6.510  -6.103   0.000  1.00  0.00    -0.021 A 
HETATM   10  C   UNL     1      -8.883  -5.046   0.000  1.00  0.00     0.035 A 
HETATM   11  C   UNL     1      -7.391  -4.889   0.000  1.00  0.00     0.034 A 
HETATM   12  C   UNL     1      -9.493  -6.416   0.000  1.00  0.00     0.006 A 
HETATM   13  C   UNL     1      -8.612  -7.630   0.000  1.00  0.00     0.005 A 
HETATM   14  C   UNL     1      -7.120  -7.473   0.000  1.00  0.00     0.026 A 
ENDROOT
BRANCH   5  15
HETATM   15  N   UNL     1      -1.186  -3.389   0.000  1.00  0.00    -0.122 N 
HETATM   16  O   UNL     1       0.113  -4.139   0.000  1.00  0.00    -0.532 OA
HETATM   17  O   UNL     1      -1.186  -1.889   0.000  1.00  0.00    -0.532 OA
ENDBRANCH   5  15
TORSDOF 1
