REMARK  4 active torsions:
REMARK  status: ('A' for Active; 'I' for Inactive)
REMARK    1  A    between atoms: N_3  and  N_4 
REMARK    2  A    between atoms: N_3  and  C_7 
REMARK    3  A    between atoms: N_4  and  C_11 
REMARK    4  A    between atoms: C_13  and  N_17 
ROOT
HETATM    1  N   UNL     1      -7.245   4.418   0.000  1.00  0.00    -0.157 NA
ENDROOT
BRANCH   1   2
HETATM    2  N   UNL     1      -7.245   5.918   0.000  1.00  0.00    -0.154 NA
BRANCH   2   3
HETATM    3  C   UNL     1      -8.544   6.668   0.000  1.00  0.00     0.076 A 
HETATM    4  C   UNL     1      -9.843   5.918   0.000  1.00  0.00    -0.004 A 
HETATM    5  C   UNL     1     -11.142   6.668   0.000  1.00  0.00     0.153 A 
HETATM    6  C   UNL     1      -9.843   4.418   0.000  1.00  0.00     0.030 C 
HETATM    7  N   UNL     1     -11.142   8.168   0.000  1.00  0.00    -0.224 N 
HETATM    8  O   UNL     1     -12.441   8.918   0.000  1.00  0.00    -0.089 OA
HETATM    9  C   UNL     1      -9.843   8.918   0.000  1.00  0.00     0.137 A 
HETATM   10  C   UNL     1      -8.544   8.168   0.000  1.00  0.00     0.073 A 
ENDBRANCH   2   3
ENDBRANCH   1   2
BRANCH   1  11
HETATM   11  C   UNL     1      -5.946   3.668   0.000  1.00  0.00     0.063 A 
HETATM   12  C   UNL     1      -4.647   4.418   0.000  1.00  0.00     0.066 A 
HETATM   13  C   UNL     1      -3.348   3.668   0.000  1.00  0.00    -0.025 A 
HETATM   14  C   UNL     1      -3.348   2.168   0.000  1.00  0.00     0.047 A 
HETATM   15  C   UNL     1      -2.049   4.418   0.000  1.00  0.00     0.028 C 
HETATM   16  C   UNL     1      -4.647   1.418   0.000  1.00  0.00     0.051 A 
HETATM   17  C   UNL     1      -5.946   2.168   0.000  1.00  0.00     0.050 A 
BRANCH  14  18
HETATM   18  N   UNL     1      -2.049   1.418   0.000  1.00  0.00    -0.274 NA
HETATM   19  C   UNL     1      -0.750   2.168   0.000  1.00  0.00     0.151 C 
ENDBRANCH  14  18
ENDBRANCH   1  11
TORSDOF 4
