REMARK  1 active torsions:
REMARK  status: ('A' for Active; 'I' for Inactive)
REMARK    1  A    between atoms: C_13  and  C_14 
ROOT
HETATM    1  O   UNL     1      -2.973   3.650   0.000  1.00  0.00    -0.103 OA
HETATM    2  N   UNL     1      -2.973   2.150   0.000  1.00  0.00    -0.209 N 
HETATM    3  C   UNL     1      -5.571   2.150   0.000  1.00  0.00     0.018 A 
HETATM    4  C   UNL     1      -4.272   1.399   0.000  1.00  0.00     0.075 A 
HETATM    5  C   UNL     1      -6.870   1.399   0.000  1.00  0.00     0.030 A 
HETATM    6  C   UNL     1      -4.272  -0.101   0.000  1.00  0.00    -0.027 A 
HETATM    7  C   UNL     1      -6.870  -0.101   0.000  1.00  0.00     0.009 A 
HETATM    8  C   UNL     1      -2.973  -0.851   0.000  1.00  0.00     0.026 A 
HETATM    9  C   UNL     1      -1.674   1.399   0.000  1.00  0.00     0.136 A 
HETATM   10  C   UNL     1      -1.674  -0.101   0.000  1.00  0.00     0.031 A 
HETATM   11  C   UNL     1      -5.571  -0.851   0.000  1.00  0.00     0.024 A 
HETATM   12  C   UNL     1      -5.571   3.650   0.000  1.00  0.00     0.147 A 
HETATM   13  O   UNL     1      -4.272   4.399   0.000  1.00  0.00    -0.174 OA
ENDROOT
BRANCH  12  14
HETATM   14  C   UNL     1      -6.870   4.399   0.000  1.00  0.00     0.392 C 
HETATM   15  N   UNL     1      -6.870   5.899   0.000  1.00  0.00     0.626 N 
ENDBRANCH  12  14
TORSDOF 1
