REMARK  1 active torsions:
REMARK  status: ('A' for Active; 'I' for Inactive)
REMARK    1  A    between atoms: C_4  and  C_10 
ROOT
HETATM    1  C   UNL     1      -2.049   5.250   0.000  1.00  0.00     0.026 A 
HETATM    2  C   UNL     1      -0.750   4.500   0.000  1.00  0.00     0.005 A 
HETATM    3  C   UNL     1      -3.348   4.500   0.000  1.00  0.00    -0.025 A 
HETATM    4  C   UNL     1      -4.647   5.250   0.000  1.00  0.00    -0.016 A 
HETATM    5  C   UNL     1      -5.946   4.500   0.000  1.00  0.00    -0.025 A 
HETATM    6  C   UNL     1      -7.245   5.250   0.000  1.00  0.00     0.026 A 
HETATM    7  C   UNL     1      -8.544   4.500   0.000  1.00  0.00     0.005 A 
HETATM    8  C   UNL     1      -0.750   3.000   0.000  1.00  0.00     0.005 A 
HETATM    9  C   UNL     1      -3.348   3.000   0.000  1.00  0.00    -0.001 A 
HETATM   10  C   UNL     1      -5.946   3.000   0.000  1.00  0.00    -0.001 A 
HETATM   11  C   UNL     1      -8.544   3.000   0.000  1.00  0.00     0.005 A 
HETATM   12  C   UNL     1      -2.049   2.250   0.000  1.00  0.00     0.028 A 
HETATM   13  C   UNL     1      -4.647   2.250   0.000  1.00  0.00     0.122 A 
HETATM   14  C   UNL     1      -7.245   2.250   0.000  1.00  0.00     0.028 A 
HETATM   15  O   UNL     1      -4.647   0.750   0.000  1.00  0.00    -0.191 OA
ENDROOT
BRANCH   4  16
HETATM   16  C   UNL     1      -4.647   6.750   0.000  1.00  0.00    -0.041 A 
HETATM   17  C   UNL     1      -3.348   7.500   0.000  1.00  0.00     0.046 A 
HETATM   18  C   UNL     1      -3.348   9.000   0.000  1.00  0.00     0.101 A 
HETATM   19  N   UNL     1      -4.647   9.750   0.000  1.00  0.00    -0.366 N 
HETATM   20  C   UNL     1      -5.946   9.000   0.000  1.00  0.00     0.101 A 
HETATM   21  C   UNL     1      -4.647  11.250   0.000  1.00  0.00     0.121 C 
HETATM   22  C   UNL     1      -5.946   7.500   0.000  1.00  0.00     0.046 A 
ENDBRANCH   4  16
TORSDOF 1
