REMARK  4 active torsions:
REMARK  status: ('A' for Active; 'I' for Inactive)
REMARK    1  A    between atoms: C_2  and  C_11 
REMARK    2  A    between atoms: C_5  and  S_8 
REMARK       I    between atoms: C_11  and  N_13 
REMARK    3  A    between atoms: N_13  and  C_14 
REMARK    4  A    between atoms: C_14  and  C_15 
ROOT
HETATM    1  C   UNL     1       3.422   6.074   0.000  1.00  0.00     0.027 A 
HETATM    2  C   UNL     1       4.721   5.324   0.000  1.00  0.00    -0.001 A 
HETATM    3  C   UNL     1       2.123   5.324   0.000  1.00  0.00     0.022 A 
HETATM    4  C   UNL     1       4.721   3.824   0.000  1.00  0.00     0.027 A 
HETATM    5  C   UNL     1       2.123   3.824   0.000  1.00  0.00     0.132 A 
HETATM    6  C   UNL     1       3.422   3.074   0.000  1.00  0.00     0.022 A 
ENDROOT
BRANCH   2   7
HETATM    7  C   UNL     1       6.020   6.074   0.000  1.00  0.00     0.201 C 
HETATM    8  O   UNL     1       7.319   5.324   0.000  1.00  0.00    -0.170 OA
HETATM    9  N   UNL     1       6.020   7.574   0.000  1.00  0.00    -0.247 NA
BRANCH   9  10
HETATM   10  C   UNL     1       7.319   8.324   0.000  1.00  0.00     0.128 C 
BRANCH  10  11
HETATM   11  C   UNL     1       8.618   7.574   0.000  1.00  0.00     0.026 C 
HETATM   12  C   UNL     1       9.917   8.324   0.000  1.00  0.00     0.002 C 
ENDBRANCH  10  11
ENDBRANCH   9  10
ENDBRANCH   2   7
BRANCH   5  13
HETATM   13  S   UNL     1       0.824   3.074   0.000  1.00  0.00     0.281 S 
HETATM   14  N   UNL     1       0.074   4.373   0.000  1.00  0.00    -0.047 N 
HETATM   15  O   UNL     1      -0.475   2.324   0.000  1.00  0.00    -0.201 OA
HETATM   16  O   UNL     1       1.574   1.774   0.000  1.00  0.00    -0.201 OA
ENDBRANCH   5  13
TORSDOF 4
