REMARK  0 active torsions:
REMARK  status: ('A' for Active; 'I' for Inactive)
ROOT
HETATM    1  O   UNL     1      -6.718 -12.465   0.000  1.00  0.00    -0.223 OA
HETATM    2  F   UNL     1      -2.240  -9.433   0.000  1.00  0.00    -0.369 F 
HETATM    3  C   UNL     1       0.517  -4.895   0.000  1.00  0.00     0.028 A 
HETATM    4  C   UNL     1       1.731  -5.777   0.000  1.00  0.00     0.002 A 
HETATM    5  C   UNL     1      -0.696  -5.777   0.000  1.00  0.00     0.002 A 
HETATM    6  C   UNL     1      -2.163  -5.465   0.000  1.00  0.00     0.032 A 
HETATM    7  C   UNL     1      -3.167  -6.579   0.000  1.00  0.00     0.148 A 
HETATM    8  C   UNL     1       1.268  -7.203   0.000  1.00  0.00    -0.006 A 
HETATM    9  C   UNL     1      -0.233  -7.203   0.000  1.00  0.00     0.016 A 
HETATM   10  C   UNL     1      -2.703  -8.006   0.000  1.00  0.00     0.149 A 
HETATM   11  C   UNL     1      -1.236  -8.318   0.000  1.00  0.00     0.046 A 
HETATM   12  C   UNL     1      -3.707  -9.121   0.000  1.00  0.00     0.147 A 
HETATM   13  C   UNL     1      -5.174  -8.809   0.000  1.00  0.00    -0.003 A 
HETATM   14  C   UNL     1      -6.178  -9.924   0.000  1.00  0.00     0.056 A 
HETATM   15  C   UNL     1      -0.773  -9.745   0.000  1.00  0.00     0.001 A 
HETATM   16  C   UNL     1      -3.244 -10.547   0.000  1.00  0.00    -0.033 A 
HETATM   17  C   UNL     1      -5.715 -11.350   0.000  1.00  0.00     0.160 A 
HETATM   18  C   UNL     1      -1.776 -10.859   0.000  1.00  0.00     0.020 A 
HETATM   19  C   UNL     1      -4.247 -11.662   0.000  1.00  0.00     0.054 A 
HETATM   20  C   UNL     1      -4.171  -7.694   0.000  1.00  0.00     0.160 A 
HETATM   21  O   UNL     1      -4.634  -6.268   0.000  1.00  0.00    -0.350 OA
HETATM   22  C   UNL     1      -1.008  -4.309   0.000  1.00  0.00     0.030 A 
HETATM   23  C   UNL     1       0.517  -3.395   0.000  1.00  0.00     0.127 A 
HETATM   24  O   UNL     1      -0.781  -2.645   0.000  1.00  0.00    -0.226 OA
HETATM   25  C   UNL     1       1.817  -2.645   0.000  1.00  0.00     0.033 C 
ENDROOT
TORSDOF 0
