REMARK  2 active torsions:
REMARK  status: ('A' for Active; 'I' for Inactive)
REMARK    1  A    between atoms: C_3  and  S_13 
REMARK    2  A    between atoms: C_7  and  S_9 
ROOT
HETATM    1 CL   UNL     1      -3.348   7.299   0.000  1.00  0.00    -0.086 Cl
HETATM    2  C   UNL     1      -0.750   7.299   0.000  1.00  0.00     0.057 A 
HETATM    3  C   UNL     1       0.549   6.549   0.000  1.00  0.00     0.141 A 
HETATM    4  C   UNL     1      -2.049   6.549   0.000  1.00  0.00     0.050 A 
HETATM    5  C   UNL     1       0.549   5.049   0.000  1.00  0.00     0.059 A 
HETATM    6  C   UNL     1      -2.049   5.049   0.000  1.00  0.00     0.085 A 
HETATM    7  C   UNL     1      -0.750   4.299   0.000  1.00  0.00     0.099 A 
HETATM    8  N   UNL     1      -3.348   4.299   0.000  1.00  0.00    -0.100 NA
ENDROOT
BRANCH   3   9
HETATM    9  S   UNL     1       1.848   7.299   0.000  1.00  0.00     0.281 S 
HETATM   10  O   UNL     1       1.098   8.598   0.000  1.00  0.00    -0.201 OA
HETATM   11  O   UNL     1       2.598   6.000   0.000  1.00  0.00    -0.201 OA
HETATM   12  N   UNL     1       3.147   8.049   0.000  1.00  0.00    -0.047 N 
ENDBRANCH   3   9
BRANCH   7  13
HETATM   13  S   UNL     1      -0.750   2.799   0.000  1.00  0.00     0.300 S 
HETATM   14  O   UNL     1      -2.250   2.799   0.000  1.00  0.00    -0.197 OA
HETATM   15  O   UNL     1      -0.750   1.299   0.000  1.00  0.00    -0.197 OA
HETATM   16  N   UNL     1       0.750   2.799   0.000  1.00  0.00    -0.043 N 
ENDBRANCH   7  13
TORSDOF 2
