REMARK  2 active torsions:
REMARK  status: ('A' for Active; 'I' for Inactive)
REMARK    1  A    between atoms: C_9  and  C_11 
REMARK    2  A    between atoms: N_23  and  C_24 
ROOT
HETATM    1  C   UNL     2      10.305   5.110   0.000  1.00  0.00     0.166 C 
HETATM    2  S   UNL     2       8.827   4.850   0.000  1.00  0.00     0.117 S 
HETATM    3  O   UNL     2       9.088   3.372   0.000  1.00  0.00    -0.594 OA
HETATM    4  O   UNL     2       7.350   4.589   0.000  1.00  0.00    -0.594 OA
HETATM    5  O   UNL     2       8.567   6.327   0.000  1.00  0.00    -0.594 OA
ENDROOT
TORSDOF 2
