REMARK  1 active torsions:
REMARK  status: ('A' for Active; 'I' for Inactive)
REMARK    1  A    between atoms: C_11  and  C_13 
ROOT
HETATM    1  N   UNL     1      -4.647  -2.250   0.000  1.00  0.00    -0.242 NA
HETATM    2  N   UNL     1      -4.647  -5.250   0.000  1.00  0.00    -0.334 N 
HETATM    3  H   UNL     1      -4.647  -6.750   0.000  1.00  0.00     0.168 HD
HETATM    4  O   UNL     1      -2.049  -5.250   0.000  1.00  0.00    -0.169 OA
HETATM    5  C   UNL     1      -7.245  -2.250   0.000  1.00  0.00     0.047 A 
HETATM    6  C   UNL     1      -5.946  -3.000   0.000  1.00  0.00     0.071 A 
HETATM    7  C   UNL     1      -8.544  -3.000   0.000  1.00  0.00     0.007 A 
HETATM    8  C   UNL     1      -5.946  -4.500   0.000  1.00  0.00     0.049 A 
HETATM    9  C   UNL     1      -8.544  -4.500   0.000  1.00  0.00     0.007 A 
HETATM   10  C   UNL     1      -7.245  -5.250   0.000  1.00  0.00     0.045 A 
HETATM   11  C   UNL     1      -3.348  -3.000   0.000  1.00  0.00     0.161 A 
HETATM   12  C   UNL     1      -3.348  -4.500   0.000  1.00  0.00     0.212 A 
ENDROOT
BRANCH  11  13
HETATM   13  C   UNL     1      -2.049  -2.250   0.000  1.00  0.00     0.221 C 
HETATM   14  O   UNL     1      -0.750  -3.000   0.000  1.00  0.00    -0.173 OA
HETATM   15  N   UNL     1      -2.049  -0.750   0.000  1.00  0.00    -0.069 NA
ENDBRANCH  11  13
TORSDOF 1
