REMARK  1 active torsions:
REMARK  status: ('A' for Active; 'I' for Inactive)
REMARK    1  A    between atoms: C_5  and  C_8 
ROOT
HETATM    1  N   UNL     1       0.275   4.024   0.000  1.00  0.00    -0.339 N 
HETATM    2  C   UNL     1       2.873   5.524   0.000  1.00  0.00    -0.041 A 
HETATM    3  C   UNL     1       1.574   6.274   0.000  1.00  0.00     0.061 A 
HETATM    4  C   UNL     1       0.275   5.524   0.000  1.00  0.00     0.018 A 
HETATM    5  C   UNL     1       2.873   4.024   0.000  1.00  0.00     0.061 A 
HETATM    6  C   UNL     1       1.574   3.275   0.000  1.00  0.00     0.018 A 
HETATM    7  C   UNL     1      -1.024   6.274   0.000  1.00  0.00     0.045 C 
HETATM    8  C   UNL     1      -1.024   3.275   0.000  1.00  0.00     0.129 C 
HETATM    9  C   UNL     1       1.574   1.774   0.000  1.00  0.00     0.045 C 
ENDROOT
BRANCH   2  10
HETATM   10  C   UNL     1       4.172   6.274   0.000  1.00  0.00    -0.051 A 
HETATM   11  C   UNL     1       4.172   7.774   0.000  1.00  0.00     0.024 A 
HETATM   12  C   UNL     1       5.471   8.524   0.000  1.00  0.00     0.037 A 
HETATM   13  C   UNL     1       6.770   7.774   0.000  1.00  0.00     0.153 A 
HETATM   14  O   UNL     1       8.069   8.524   0.000  1.00  0.00    -0.223 OA
HETATM   15  C   UNL     1       6.770   6.274   0.000  1.00  0.00     0.037 A 
HETATM   16  C   UNL     1       5.471   5.524   0.000  1.00  0.00     0.024 A 
ENDBRANCH   2  10
TORSDOF 1
