REMARK  1 active torsions:
REMARK  status: ('A' for Active; 'I' for Inactive)
REMARK    1  A    between atoms: C_8  and  O_25 
ROOT
HETATM    1  N   UNL     1      -2.873   5.524   0.000  1.00  0.00    -0.254 NA
HETATM    2  C   UNL     1      -1.574   7.774   0.000  1.00  0.00     0.060 A 
HETATM    3  C   UNL     1      -2.873   7.024   0.000  1.00  0.00     0.065 A 
HETATM    4  C   UNL     1      -0.275   7.024   0.000  1.00  0.00     0.013 A 
HETATM    5  C   UNL     1       1.024   7.774   0.000  1.00  0.00     0.038 A 
HETATM    6  C   UNL     1       1.024   9.274   0.000  1.00  0.00     0.084 A 
HETATM    7  C   UNL     1       2.324  10.024   0.000  1.00  0.00     0.082 A 
HETATM    8  C   UNL     1       3.623   9.274   0.000  1.00  0.00     0.128 A 
HETATM    9  C   UNL     1       2.324   7.024   0.000  1.00  0.00     0.084 A 
HETATM   10  C   UNL     1      -0.275   5.524   0.000  1.00  0.00     0.060 A 
HETATM   11  C   UNL     1       3.623   7.774   0.000  1.00  0.00     0.082 A 
HETATM   12  C   UNL     1      -1.574   4.774   0.000  1.00  0.00     0.065 A 
HETATM   13  C   UNL     1      -4.172   7.774   0.000  1.00  0.00     0.076 A 
HETATM   14  C   UNL     1      -1.574   9.274   0.000  1.00  0.00     0.200 A 
HETATM   15  O   UNL     1      -0.275  10.024   0.000  1.00  0.00    -0.290 OA
HETATM   16  O   UNL     1      -2.873  10.024   0.000  1.00  0.00    -0.313 OA
HETATM   17  C   UNL     1      -4.172   9.274   0.000  1.00  0.00     0.130 A 
HETATM   18  C   UNL     1      -5.471  10.024   0.000  1.00  0.00     0.033 C 
HETATM   19  C   UNL     1      -1.574   3.275   0.000  1.00  0.00     0.076 A 
HETATM   20  C   UNL     1       1.024   4.774   0.000  1.00  0.00     0.200 A 
HETATM   21  O   UNL     1       2.324   5.524   0.000  1.00  0.00    -0.290 OA
HETATM   22  O   UNL     1       1.024   3.275   0.000  1.00  0.00    -0.313 OA
HETATM   23  C   UNL     1      -0.275   2.525   0.000  1.00  0.00     0.130 A 
HETATM   24  C   UNL     1      -0.275   1.024   0.000  1.00  0.00     0.033 C 
ENDROOT
BRANCH   8  25
HETATM   25  O   UNL     1       4.922  10.024   0.000  1.00  0.00    -0.353 OA
HETATM   26  C   UNL     1       4.922  11.524   0.000  1.00  0.00     0.174 C 
ENDBRANCH   8  25
TORSDOF 1
