REMARK  3 active torsions:
REMARK  status: ('A' for Active; 'I' for Inactive)
REMARK    1  A    between atoms: C_6  and  C_7 
REMARK    2  A    between atoms: C_12  and  C_20 
REMARK    3  A    between atoms: C_14  and  C_20 
ROOT
HETATM    1  O   UNL     1      -8.476   6.484   0.000  1.00  0.00    -0.161 OA
HETATM    2  O   UNL     1      -8.616   3.815   0.000  1.00  0.00    -0.286 OA
HETATM    3  O   UNL     1      -5.284   5.806   0.000  1.00  0.00    -0.186 OA
HETATM    4  C   UNL     1      -6.398   4.802   0.000  1.00  0.00     0.181 A 
HETATM    5  C   UNL     1      -7.865   5.114   0.000  1.00  0.00     0.258 A 
HETATM    6  C   UNL     1      -6.241   3.311   0.000  1.00  0.00     0.040 A 
HETATM    7  C   UNL     1      -7.612   2.700   0.000  1.00  0.00     0.081 A 
ENDROOT
BRANCH   7   8
HETATM    8  C   UNL     1      -7.924   1.233   0.000  1.00  0.00     0.052 C 
BRANCH   8   9
HETATM    9  C   UNL     1      -9.350   0.770   0.000  1.00  0.00     0.006 A 
HETATM   10  C   UNL     1     -10.465   1.773   0.000  1.00  0.00     0.000 A 
HETATM   11  C   UNL     1     -11.892   1.310   0.000  1.00  0.00     0.000 A 
HETATM   12  C   UNL     1     -12.203  -0.157   0.000  1.00  0.00     0.000 A 
HETATM   13  C   UNL     1     -11.089  -1.161   0.000  1.00  0.00     0.000 A 
HETATM   14  C   UNL     1      -9.662  -0.698   0.000  1.00  0.00     0.000 A 
ENDBRANCH   8   9
ENDBRANCH   7   8
BRANCH   6  15
HETATM   15  C   UNL     1      -4.942   2.561   0.000  1.00  0.00    -0.041 A 
HETATM   16  C   UNL     1      -4.942   1.060   0.000  1.00  0.00     0.022 A 
HETATM   17  C   UNL     1      -3.643   0.310   0.000  1.00  0.00     0.004 A 
HETATM   18  C   UNL     1      -2.344   1.060   0.000  1.00  0.00     0.001 A 
HETATM   19  C   UNL     1      -2.344   2.561   0.000  1.00  0.00     0.004 A 
HETATM   20  C   UNL     1      -3.643   3.311   0.000  1.00  0.00     0.022 A 
ENDBRANCH   6  15
TORSDOF 3
