REMARK  1 active torsions:
REMARK  status: ('A' for Active; 'I' for Inactive)
REMARK    1  A    between atoms: C_6  and  C_12 
ROOT
HETATM    1  N   UNL     1      -2.030   1.315   0.000  1.00  0.00    -0.255 NA
HETATM    2  N   UNL     1       0.688   1.662   0.000  1.00  0.00    -0.356 N 
HETATM    3  H   UNL     1       0.812   3.157   0.000  1.00  0.00     0.162 HD
HETATM    4  C   UNL     1       1.825   0.683   0.000  1.00  0.00     0.124 A 
HETATM    5  C   UNL     1       1.245  -0.701   0.000  1.00  0.00     0.009 A 
HETATM    6  C   UNL     1      -0.250  -0.577   0.000  1.00  0.00     0.007 A 
HETATM    7  C   UNL     1      -0.594   0.883   0.000  1.00  0.00     0.128 A 
HETATM    8  C   UNL     1      -1.342  -1.605   0.000  1.00  0.00     0.031 A 
HETATM    9  C   UNL     1      -2.778  -1.173   0.000  1.00  0.00     0.031 A 
HETATM   10  C   UNL     1      -3.123   0.287   0.000  1.00  0.00     0.128 A 
ENDROOT
BRANCH   5  11
HETATM   11  C   UNL     1       2.024  -1.983   0.000  1.00  0.00     0.206 C 
HETATM   12  O   UNL     1       3.523  -1.949   0.000  1.00  0.00    -0.216 OA
ENDBRANCH   5  11
TORSDOF 1
