REMARK  1 active torsions:
REMARK  status: ('A' for Active; 'I' for Inactive)
REMARK    1  A    between atoms: C_4  and  O_8 
ROOT
HETATM    1  O   UNL     1       4.647   0.750   0.000  1.00  0.00    -0.193 OA
HETATM    2  O   UNL     1       5.946   3.000   0.000  1.00  0.00     0.000 OA
HETATM    3  C   UNL     1       4.647   5.250   0.000  1.00  0.00     0.052 A 
HETATM    4  C   UNL     1       3.348   4.500   0.000  1.00  0.00     0.126 A 
HETATM    5  C   UNL     1       5.946   4.500   0.000  1.00  0.00    -0.043 A 
HETATM    6  C   UNL     1       3.348   3.000   0.000  1.00  0.00     0.086 A 
HETATM    7  C   UNL     1       4.647   2.250   0.000  1.00  0.00     0.132 A 
HETATM    8  C   UNL     1       7.245   5.250   0.000  1.00  0.00     0.080 A 
HETATM    9  C   UNL     1       8.544   4.500   0.000  1.00  0.00     0.164 A 
HETATM   10  O   UNL     1       9.843   5.250   0.000  1.00  0.00    -0.190 OA
HETATM   11  C   UNL     1       8.544   3.000   0.000  1.00  0.00     0.282 A 
HETATM   12  O   UNL     1       9.843   2.250   0.000  1.00  0.00    -0.159 OA
HETATM   13  O   UNL     1       7.245   2.250   0.000  1.00  0.00    -0.159 OA
ENDROOT
BRANCH   4  14
HETATM   14  O   UNL     1       2.049   5.250   0.000  1.00  0.00    -0.353 OA
HETATM   15  C   UNL     1       0.750   4.500   0.000  1.00  0.00     0.174 C 
ENDBRANCH   4  14
TORSDOF 1
