REMARK  2 active torsions:
REMARK  status: ('A' for Active; 'I' for Inactive)
REMARK    1  A    between atoms: C_3  and  N_17 
REMARK    2  A    between atoms: C_7  and  O_12 
REMARK       I    between atoms: C_14  and  N_17 
ROOT
HETATM    1 BR   UNL     1      -6.800  -4.440   0.000  1.00  0.00    -0.048 Br
HETATM    2  N   UNL     1      -4.201   0.060   0.000  1.00  0.00    -0.270 NA
HETATM    3  C   UNL     1      -6.800   0.060   0.000  1.00  0.00     0.084 A 
HETATM    4  C   UNL     1      -5.500  -0.690   0.000  1.00  0.00     0.086 A 
HETATM    5  C   UNL     1      -8.098  -0.690   0.000  1.00  0.00     0.099 A 
HETATM    6  C   UNL     1      -5.500  -2.190   0.000  1.00  0.00     0.004 A 
HETATM    7  C   UNL     1      -8.098  -2.190   0.000  1.00  0.00     0.084 A 
HETATM    8  C   UNL     1      -4.201  -2.940   0.000  1.00  0.00     0.030 A 
HETATM    9  C   UNL     1      -2.902  -0.690   0.000  1.00  0.00     0.126 A 
HETATM   10  C   UNL     1      -2.902  -2.190   0.000  1.00  0.00     0.031 A 
HETATM   11  C   UNL     1      -6.800  -2.940   0.000  1.00  0.00     0.051 A 
ENDROOT
BRANCH   3  12
HETATM   12  N   UNL     1      -6.800   1.560   0.000  1.00  0.00    -0.226 NA
HETATM   13  C   UNL     1      -8.098   2.310   0.000  1.00  0.00     0.190 C 
HETATM   14  O   UNL     1      -8.098   3.810   0.000  1.00  0.00    -0.174 OA
HETATM   15  C   UNL     1      -9.398   1.560   0.000  1.00  0.00     0.083 C 
ENDBRANCH   3  12
BRANCH   7  16
HETATM   16  O   UNL     1      -9.398  -2.940   0.000  1.00  0.00    -0.332 OA
HETATM   17  C   UNL     1     -10.697  -2.190   0.000  1.00  0.00     0.181 C 
ENDBRANCH   7  16
TORSDOF 2
