REMARK  6 active torsions:
REMARK  status: ('A' for Active; 'I' for Inactive)
REMARK    1  A    between atoms: C_2  and  C_14 
REMARK    2  A    between atoms: C_4  and  C_10 
REMARK    3  A    between atoms: C_7  and  O_9 
REMARK    4  A    between atoms: O_9  and  C_10 
REMARK    5  A    between atoms: C_14  and  O_16 
REMARK    6  A    between atoms: O_16  and  C_17 
ROOT
HETATM    1  N   UNL     1      -5.159  -3.965   0.000  1.00  0.00    -0.326 N 
HETATM    2  C   UNL     1      -3.945  -4.846   0.000  1.00  0.00     0.105 A 
HETATM    3  C   UNL     1      -4.409  -6.273   0.000  1.00  0.00     0.003 A 
HETATM    4  C   UNL     1      -5.909  -6.273   0.000  1.00  0.00     0.058 A 
HETATM    5  C   UNL     1      -6.372  -4.846   0.000  1.00  0.00     0.041 A 
HETATM    6  C   UNL     1      -7.799  -4.383   0.000  1.00  0.00     0.050 C 
HETATM    7  C   UNL     1      -5.159  -2.465   0.000  1.00  0.00     0.130 C 
HETATM    8  C   UNL     1      -3.527  -7.487   0.000  1.00  0.00     0.033 C 
ENDROOT
BRANCH   2   9
HETATM    9  C   UNL     1      -2.519  -4.383   0.000  1.00  0.00     0.244 C 
HETATM   10  O   UNL     1      -1.404  -5.387   0.000  1.00  0.00    -0.162 OA
BRANCH   9  11
HETATM   11  O   UNL     1      -2.207  -2.916   0.000  1.00  0.00    -0.308 OA
BRANCH  11  12
HETATM   12  C   UNL     1      -0.780  -2.452   0.000  1.00  0.00     0.151 C 
HETATM   13  C   UNL     1       0.334  -3.456   0.000  1.00  0.00     0.035 C 
ENDBRANCH  11  12
ENDBRANCH   9  11
ENDBRANCH   2   9
BRANCH   4  14
HETATM   14  C   UNL     1      -6.791  -7.487   0.000  1.00  0.00     0.229 C 
HETATM   15  O   UNL     1      -6.181  -8.857   0.000  1.00  0.00    -0.163 OA
BRANCH  14  16
HETATM   16  O   UNL     1      -8.282  -7.330   0.000  1.00  0.00    -0.309 OA
BRANCH  16  17
HETATM   17  C   UNL     1      -9.164  -8.543   0.000  1.00  0.00     0.151 C 
HETATM   18  C   UNL     1     -10.656  -8.387   0.000  1.00  0.00     0.035 C 
ENDBRANCH  16  17
ENDBRANCH  14  16
ENDBRANCH   4  14
TORSDOF 6
