REMARK  0 active torsions:
REMARK  status: ('A' for Active; 'I' for Inactive)
ROOT
HETATM    1  O   UNL     1      -5.946  -1.500   0.000  1.00  0.00    -0.300 OA
HETATM    2  C   UNL     1      -5.946  -3.000   0.000  1.00  0.00     0.123 A 
HETATM    3  C   UNL     1      -4.647  -3.750   0.000  1.00  0.00     0.052 A 
HETATM    4  C   UNL     1      -3.348  -3.000   0.000  1.00  0.00     0.123 A 
HETATM    5  O   UNL     1      -3.348  -1.500   0.000  1.00  0.00    -0.300 OA
HETATM    6  C   UNL     1      -4.647  -0.750   0.000  1.00  0.00     0.304 A 
HETATM    7  O   UNL     1      -4.647  -5.250   0.000  1.00  0.00     0.000 OA
HETATM    8  C   UNL     1      -7.245  -3.750   0.000  1.00  0.00     0.164 A 
HETATM    9  O   UNL     1      -8.544  -3.000   0.000  1.00  0.00    -0.190 OA
HETATM   10  C   UNL     1      -7.245  -5.250   0.000  1.00  0.00     0.238 A 
HETATM   11  O   UNL     1      -5.946  -6.000   0.000  1.00  0.00    -0.213 OA
HETATM   12  C   UNL     1      -2.049  -3.750   0.000  1.00  0.00     0.164 A 
HETATM   13  O   UNL     1      -0.750  -3.000   0.000  1.00  0.00    -0.190 OA
HETATM   14  C   UNL     1      -2.049  -5.250   0.000  1.00  0.00     0.238 A 
HETATM   15  O   UNL     1      -3.348  -6.000   0.000  1.00  0.00    -0.213 OA
ENDROOT
TORSDOF 0
