REMARK  4 active torsions:
REMARK  status: ('A' for Active; 'I' for Inactive)
REMARK    1  A    between atoms: C_5  and  S_10 
REMARK    2  A    between atoms: C_7  and  C_12 
REMARK    3  A    between atoms: C_12  and  O_14 
REMARK    4  A    between atoms: O_14  and  C_15 
ROOT
HETATM    1  N   UNL     1       3.166  -2.038   0.000  1.00  0.00    -0.221 NA
HETATM    2  N   UNL     1       4.465  -4.288   0.000  1.00  0.00    -0.226 NA
HETATM    3  N   UNL     1       5.764  -2.038   0.000  1.00  0.00    -0.217 N 
HETATM    4  N   UNL     1       7.191  -1.574   0.000  1.00  0.00    -0.109 NA
HETATM    5  C   UNL     1       4.465  -1.288   0.000  1.00  0.00     0.185 A 
HETATM    6  C   UNL     1       8.073  -2.788   0.000  1.00  0.00     0.148 A 
HETATM    7  C   UNL     1       7.191  -4.002   0.000  1.00  0.00     0.081 A 
HETATM    8  C   UNL     1       5.764  -3.538   0.000  1.00  0.00     0.160 A 
HETATM    9  C   UNL     1       3.166  -3.538   0.000  1.00  0.00     0.254 A 
ENDROOT
BRANCH   7  10
HETATM   10  C   UNL     1       7.655  -5.428   0.000  1.00  0.00     0.229 C 
HETATM   11  O   UNL     1       9.122  -5.740   0.000  1.00  0.00    -0.164 OA
BRANCH  10  12
HETATM   12  O   UNL     1       6.651  -6.543   0.000  1.00  0.00    -0.309 OA
BRANCH  12  13
HETATM   13  C   UNL     1       7.114  -7.969   0.000  1.00  0.00     0.151 C 
HETATM   14  C   UNL     1       6.111  -9.084   0.000  1.00  0.00     0.035 C 
ENDBRANCH  12  13
ENDBRANCH  10  12
ENDBRANCH   7  10
BRANCH   5  15
HETATM   15  S   UNL     1       4.465   0.212   0.000  1.00  0.00    -0.075 SA
HETATM   16  C   UNL     1       3.166   0.962   0.000  1.00  0.00     0.077 C 
ENDBRANCH   5  15
TORSDOF 4
