REMARK  1 active torsions:
REMARK  status: ('A' for Active; 'I' for Inactive)
REMARK    1  A    between atoms: C_8  and  C_13 
ROOT
HETATM    1  N   UNL     1      -6.413  -4.071   0.000  1.00  0.00    -0.229 NA
HETATM    2  N   UNL     1      -5.486  -6.924   0.000  1.00  0.00    -0.227 NA
HETATM    3  N   UNL     1      -3.732  -3.501   0.000  1.00  0.00    -0.318 N 
HETATM    4  H   UNL     1      -3.732  -2.001   0.000  1.00  0.00     0.169 HD
HETATM    5  N   UNL     1      -2.982  -5.810   0.000  1.00  0.00    -0.203 NA
HETATM    6  C   UNL     1      -7.417  -5.186   0.000  1.00  0.00     0.075 A 
HETATM    7  C   UNL     1      -6.953  -6.612   0.000  1.00  0.00     0.075 A 
HETATM    8  C   UNL     1      -2.519  -4.383   0.000  1.00  0.00     0.216 A 
HETATM    9  C   UNL     1      -4.946  -4.383   0.000  1.00  0.00     0.178 A 
HETATM   10  C   UNL     1      -4.482  -5.810   0.000  1.00  0.00     0.198 A 
HETATM   11  C   UNL     1      -8.884  -4.874   0.000  1.00  0.00     0.053 C 
HETATM   12  C   UNL     1      -7.957  -7.727   0.000  1.00  0.00     0.053 C 
ENDROOT
BRANCH   8  13
HETATM   13  C   UNL     1      -1.092  -3.920   0.000  1.00  0.00     0.451 C 
HETATM   14  F   UNL     1      -1.556  -2.493   0.000  1.00  0.00    -0.163 F 
HETATM   15  F   UNL     1      -0.629  -5.346   0.000  1.00  0.00    -0.163 F 
HETATM   16  F   UNL     1       0.334  -3.456   0.000  1.00  0.00    -0.163 F 
ENDBRANCH   8  13
TORSDOF 1
