REMARK  2 active torsions:
REMARK  status: ('A' for Active; 'I' for Inactive)
REMARK    1  A    between atoms: CA_4  and  C_7 
REMARK    2  A    between atoms: CA_4  and  C_10 
ROOT
HETATM    1 CL   UNL     1       1.913   3.460   0.000  1.00  0.00    -0.057 Cl
HETATM    2  N   UNL     1       2.331   0.820   0.000  1.00  0.00    -0.113 NA
HETATM    3  O   UNL     1       3.545  -0.062   0.000  1.00  0.00    -0.210 OA
HETATM    4  C   UNL     1       2.795   2.246   0.000  1.00  0.00     0.192 A 
HETATM    5  C   UNL     1       4.295   2.246   0.000  1.00  0.00     0.184 A 
HETATM    6  C   UNL     1       4.758   0.820   0.000  1.00  0.00     0.168 A 
HETATM    7  O   UNL     1       5.176   3.460   0.000  1.00  0.00    -0.186 OA
ENDROOT
BRANCH   6   8
HETATM    8  CA  UNL     1       6.185   0.356   0.000  1.00  0.00     0.470 C 
HETATM    9  N   UNL     1       7.188  -0.758   0.000  1.00  0.00     0.624 NA
BRANCH   8  10
HETATM   10  C   UNL     1       7.299   1.360   0.000  1.00  0.00     0.220 C 
HETATM   11  O   UNL     1       8.726   0.896   0.000  1.00  0.00    -0.646 OA
HETATM   12  OXT UNL     1       6.987   2.827   0.000  1.00  0.00    -0.646 OA
ENDBRANCH   8  10
ENDBRANCH   6   8
TORSDOF 2
