REMARK  4 active torsions:
REMARK  status: ('A' for Active; 'I' for Inactive)
REMARK    1  A    between atoms: C_3  and  C_17 
REMARK    2  A    between atoms: C_8  and  N_13 
REMARK    3  A    between atoms: N_13  and  C_14 
REMARK    4  A    between atoms: C_14  and  N_16 
REMARK       I    between atoms: N_16  and  C_17 
ROOT
HETATM    1  C   UNL     1      -7.245  -3.000   0.000  1.00  0.00     0.224 C 
HETATM    2  S   UNL     1      -7.245  -1.500   0.000  1.00  0.00    -0.037 SA
ENDROOT
BRANCH   1   3
HETATM    3  N   UNL     1      -8.544  -3.750   0.000  1.00  0.00    -0.203 NA
BRANCH   3   4
HETATM    4  C   UNL     1      -9.843  -3.000   0.000  1.00  0.00     0.137 A 
HETATM    5  N   UNL     1      -9.843  -1.500   0.000  1.00  0.00    -0.257 NA
HETATM    6  C   UNL     1     -11.142  -0.750   0.000  1.00  0.00     0.127 A 
HETATM    7  C   UNL     1     -12.441  -1.500   0.000  1.00  0.00     0.027 A 
HETATM    8  C   UNL     1     -12.441  -3.000   0.000  1.00  0.00     0.010 A 
HETATM    9  C   UNL     1     -11.142  -3.750   0.000  1.00  0.00     0.066 A 
ENDBRANCH   3   4
ENDBRANCH   1   3
BRANCH   1  10
HETATM   10  N   UNL     1      -5.946  -3.750   0.000  1.00  0.00    -0.192 NA
HETATM   11  C   UNL     1      -4.647  -3.000   0.000  1.00  0.00     0.207 C 
HETATM   12  O   UNL     1      -4.647  -1.500   0.000  1.00  0.00    -0.170 OA
BRANCH  11  13
HETATM   13  C   UNL     1      -3.348  -3.750   0.000  1.00  0.00    -0.000 A 
HETATM   14  C   UNL     1      -2.049  -3.000   0.000  1.00  0.00     0.026 A 
HETATM   15  C   UNL     1      -0.750  -3.750   0.000  1.00  0.00     0.004 A 
HETATM   16  C   UNL     1      -0.750  -5.250   0.000  1.00  0.00     0.001 A 
HETATM   17  C   UNL     1      -2.049  -6.000   0.000  1.00  0.00     0.004 A 
HETATM   18  C   UNL     1      -3.348  -5.250   0.000  1.00  0.00     0.026 A 
ENDBRANCH  11  13
ENDBRANCH   1  10
TORSDOF 4
