REMARK  0 active torsions:
REMARK  status: ('A' for Active; 'I' for Inactive)
ROOT
HETATM    1 CL   UNL     1       0.750  -5.918   0.000  1.00  0.00    -0.082 Cl
HETATM    2 CL   UNL     1       0.750  -8.918   0.000  1.00  0.00    -0.086 Cl
HETATM    3 CL   UNL     1       0.750  -1.418   0.000  1.00  0.00    -0.086 Cl
HETATM    4 CL   UNL     1       0.750  -4.418   0.000  1.00  0.00    -0.082 Cl
HETATM    5  C   UNL     1       3.348  -4.418   0.000  1.00  0.00     0.013 A 
HETATM    6  C   UNL     1       2.049  -3.668   0.000  1.00  0.00     0.064 A 
HETATM    7  C   UNL     1       4.647  -3.668   0.000  1.00  0.00     0.023 A 
HETATM    8  C   UNL     1       2.049  -2.168   0.000  1.00  0.00     0.046 A 
HETATM    9  C   UNL     1       4.647  -2.168   0.000  1.00  0.00     0.036 A 
HETATM   10  C   UNL     1       3.348  -1.418   0.000  1.00  0.00     0.044 A 
HETATM   11  C   UNL     1       3.348  -5.918   0.000  1.00  0.00     0.025 A 
HETATM   12  C   UNL     1       2.049  -6.668   0.000  1.00  0.00     0.065 A 
HETATM   13  C   UNL     1       4.647  -6.668   0.000  1.00  0.00     0.062 A 
HETATM   14  C   UNL     1       4.647  -8.168   0.000  1.00  0.00     0.051 A 
HETATM   15  C   UNL     1       2.049  -8.168   0.000  1.00  0.00     0.046 A 
HETATM   16  C   UNL     1       3.348  -8.918   0.000  1.00  0.00     0.045 A 
HETATM   17  N   UNL     1       5.946  -5.918   0.000  1.00  0.00    -0.225 NA
HETATM   18  C   UNL     1       5.946  -4.418   0.000  1.00  0.00     0.208 A 
HETATM   19  O   UNL     1       7.245  -3.668   0.000  1.00  0.00    -0.170 OA
ENDROOT
TORSDOF 0
