REMARK  3 active torsions:
REMARK  status: ('A' for Active; 'I' for Inactive)
REMARK    1  A    between atoms: N_3  and  C_6 
REMARK    2  A    between atoms: N_3  and  C_10 
REMARK    3  A    between atoms: C_10  and  N_11 
ROOT
HETATM    1 CL   UNL     1      -9.843  -2.250   0.000  1.00  0.00    -0.086 Cl
HETATM    2 CL   UNL     1      -9.843  -5.250   0.000  1.00  0.00    -0.086 Cl
HETATM    3  C   UNL     1      -7.245  -2.250   0.000  1.00  0.00     0.079 A 
HETATM    4  C   UNL     1      -8.544  -3.000   0.000  1.00  0.00     0.048 A 
HETATM    5  C   UNL     1      -5.946  -3.000   0.000  1.00  0.00     0.039 A 
HETATM    6  C   UNL     1      -8.544  -4.500   0.000  1.00  0.00     0.043 A 
HETATM    7  C   UNL     1      -5.946  -4.500   0.000  1.00  0.00     0.047 A 
HETATM    8  C   UNL     1      -7.245  -5.250   0.000  1.00  0.00     0.044 A 
ENDROOT
BRANCH   5   9
HETATM    9  N   UNL     1      -4.647  -2.250   0.000  1.00  0.00    -0.255 NA
BRANCH   9  10
HETATM   10  C   UNL     1      -3.348  -3.000   0.000  1.00  0.00     0.226 C 
BRANCH  10  11
HETATM   11  N   UNL     1      -2.049  -2.250   0.000  1.00  0.00    -0.345 N 
HETATM   12  C   UNL     1      -2.049  -0.750   0.000  1.00  0.00     0.123 C 
HETATM   13  C   UNL     1      -0.750  -3.000   0.000  1.00  0.00     0.123 C 
ENDBRANCH  10  11
ENDBRANCH   9  10
ENDBRANCH   5   9
TORSDOF 3
