REMARK  7 active torsions:
REMARK  status: ('A' for Active; 'I' for Inactive)
REMARK    1  A    between atoms: C_2  and  N_22 
REMARK    2  A    between atoms: C_15  and  N_30 
REMARK    3  A    between atoms: N_22  and  S_24 
REMARK    4  A    between atoms: S_24  and  C_27 
REMARK    5  A    between atoms: C_27  and  C_28 
REMARK    6  A    between atoms: C_28  and  C_29 
REMARK    7  A    between atoms: C_29  and  N_33 
REMARK       I    between atoms: N_33  and  C_34 
ROOT
HETATM    1  N   UNL     1       0.924   5.899   0.000  1.00  0.00    -0.254 NA
HETATM    2  C   UNL     1       4.821  12.649   0.000  1.00  0.00     0.086 A 
HETATM    3  C   UNL     1       4.821  11.149   0.000  1.00  0.00     0.075 A 
HETATM    4  C   UNL     1       3.522  13.399   0.000  1.00  0.00     0.073 A 
HETATM    5  C   UNL     1       3.522  10.399   0.000  1.00  0.00    -0.001 A 
HETATM    6  C   UNL     1       2.223  12.649   0.000  1.00  0.00     0.075 A 
HETATM    7  C   UNL     1       2.223  11.149   0.000  1.00  0.00     0.088 A 
HETATM    8  C   UNL     1       0.924   8.899   0.000  1.00  0.00     0.079 A 
HETATM    9  C   UNL     1      -0.375   8.149   0.000  1.00  0.00     0.009 A 
HETATM   10  C   UNL     1       2.223   8.149   0.000  1.00  0.00     0.028 A 
HETATM   11  C   UNL     1       3.522   8.899   0.000  1.00  0.00    -0.016 A 
HETATM   12  C   UNL     1       4.821   8.149   0.000  1.00  0.00     0.072 A 
HETATM   13  C   UNL     1      -1.674   8.899   0.000  1.00  0.00     0.029 A 
HETATM   14  C   UNL     1      -2.973   8.149   0.000  1.00  0.00     0.005 A 
HETATM   15  C   UNL     1       4.821   6.649   0.000  1.00  0.00     0.092 A 
HETATM   16  C   UNL     1       2.223   6.649   0.000  1.00  0.00     0.066 A 
HETATM   17  C   UNL     1      -0.375   6.649   0.000  1.00  0.00     0.056 A 
HETATM   18  C   UNL     1      -2.973   6.649   0.000  1.00  0.00     0.007 A 
HETATM   19  C   UNL     1       3.522   5.899   0.000  1.00  0.00     0.092 A 
HETATM   20  C   UNL     1      -1.674   5.899   0.000  1.00  0.00     0.045 A 
HETATM   21  N   UNL     1       0.924  10.399   0.000  1.00  0.00    -0.245 NA
HETATM   22 CL   UNL     2       2.123  14.324   0.000  1.00  0.00    -0.136 Cl
ENDROOT
BRANCH   2  23
HETATM   23  N   UNL     1       6.120  13.399   0.000  1.00  0.00    -0.165 NA
BRANCH  23  24
HETATM   24  S   UNL     1       7.419  12.649   0.000  1.00  0.00     0.264 S 
HETATM   25  O   UNL     1       6.669  11.351   0.000  1.00  0.00    -0.203 OA
HETATM   26  O   UNL     1       8.169  13.949   0.000  1.00  0.00    -0.203 OA
BRANCH  24  27
HETATM   27  C   UNL     1       8.718  11.899   0.000  1.00  0.00     0.148 C 
BRANCH  27  28
HETATM   28  C   UNL     1      10.017  12.649   0.000  1.00  0.00     0.045 C 
BRANCH  28  29
HETATM   29  C   UNL     1      11.316  11.899   0.000  1.00  0.00     0.129 C 
BRANCH  29  30
HETATM   30  N   UNL     1      11.316  10.399   0.000  1.00  0.00    -0.245 NA
HETATM   31  C   UNL     1      12.615   9.649   0.000  1.00  0.00     0.219 C 
HETATM   32  N   UNL     1      13.914  10.399   0.000  1.00  0.00    -0.065 NA
HETATM   33  N   UNL     1      12.615   8.149   0.000  1.00  0.00    -0.065 NA
ENDBRANCH  29  30
ENDBRANCH  28  29
ENDBRANCH  27  28
ENDBRANCH  24  27
ENDBRANCH  23  24
ENDBRANCH   2  23
BRANCH  15  34
HETATM   34  N   UNL     1       6.120   5.899   0.000  1.00  0.00    -0.121 N 
HETATM   35  O   UNL     1       7.419   6.649   0.000  1.00  0.00    -0.532 OA
HETATM   36  O   UNL     1       6.120   4.399   0.000  1.00  0.00    -0.532 OA
ENDBRANCH  15  34
TORSDOF 7
