REMARK  2 active torsions:
REMARK  status: ('A' for Active; 'I' for Inactive)
REMARK    1  A    between atoms: C_10  and  C_13 
REMARK    2  A    between atoms: C_14  and  C_19 
ROOT
HETATM    1 CL   UNL     1      -9.208  -9.026   0.000  1.00  0.00    -0.059 Cl
HETATM    2 CL   UNL     1      -7.444 -11.453   0.000  1.00  0.00    -0.059 Cl
HETATM    3  N   UNL     1      -7.106  -7.499   0.000  1.00  0.00    -0.212 NA
HETATM    4  N   UNL     1      -5.342  -9.926   0.000  1.00  0.00    -0.210 NA
HETATM    5  H   UNL     1      -5.196  -4.702   0.000  1.00  0.00     0.169 HD
HETATM    6  N   UNL     1      -4.732  -6.129   0.000  1.00  0.00    -0.322 N 
HETATM    7  N   UNL     1      -3.306  -8.092   0.000  1.00  0.00    -0.208 NA
HETATM    8  C   UNL     1      -3.306  -6.592   0.000  1.00  0.00     0.136 A 
HETATM    9  C   UNL     1      -7.716  -8.869   0.000  1.00  0.00     0.169 A 
HETATM   10  C   UNL     1      -6.834 -10.083   0.000  1.00  0.00     0.169 A 
HETATM   11  C   UNL     1      -5.614  -7.342   0.000  1.00  0.00     0.179 A 
HETATM   12  C   UNL     1      -4.732  -8.556   0.000  1.00  0.00     0.199 A 
ENDROOT
BRANCH   8  13
HETATM   13  C   UNL     1      -2.092  -5.710   0.000  1.00  0.00    -0.010 A 
HETATM   14  C   UNL     1      -2.249  -4.219   0.000  1.00  0.00     0.025 A 
HETATM   15  C   UNL     1      -1.035  -3.337   0.000  1.00  0.00     0.005 A 
HETATM   16  C   UNL     1       0.335  -3.947   0.000  1.00  0.00     0.009 A 
HETATM   17  C   UNL     1       0.492  -5.439   0.000  1.00  0.00     0.099 A 
HETATM   18  C   UNL     1      -0.722  -6.321   0.000  1.00  0.00     0.034 A 
BRANCH  17  19
HETATM   19  C   UNL     1       1.862  -6.049   0.000  1.00  0.00     0.398 C 
HETATM   20  F   UNL     1       1.252  -7.419   0.000  1.00  0.00    -0.170 F 
HETATM   21  F   UNL     1       3.232  -6.659   0.000  1.00  0.00    -0.170 F 
HETATM   22  F   UNL     1       2.472  -4.679   0.000  1.00  0.00    -0.170 F 
ENDBRANCH  17  19
ENDBRANCH   8  13
TORSDOF 2
