REMARK  0 active torsions:
REMARK  status: ('A' for Active; 'I' for Inactive)
ROOT
HETATM    1  O   UNL     1       3.057   0.706   0.000  1.00  0.00    -0.190 OA
HETATM    2 BR   UNL     1       5.655   2.205   0.000  1.00  0.00    -0.051 Br
HETATM    3  C   UNL     1       5.655   0.706   0.000  1.00  0.00     0.042 A 
HETATM    4  C   UNL     1       4.356  -0.044   0.000  1.00  0.00     0.129 A 
HETATM    5  C   UNL     1       6.954  -0.044   0.000  1.00  0.00     0.057 A 
HETATM    6  C   UNL     1       6.954  -1.544   0.000  1.00  0.00    -0.040 A 
HETATM    7  C   UNL     1       4.356  -1.544   0.000  1.00  0.00     0.002 A 
HETATM    8  C   UNL     1       8.253  -2.295   0.000  1.00  0.00     0.023 A 
HETATM    9  C   UNL     1       5.655  -2.295   0.000  1.00  0.00    -0.017 A 
HETATM   10  C   UNL     1       3.057  -2.295   0.000  1.00  0.00     0.029 A 
HETATM   11  C   UNL     1       8.253  -3.795   0.000  1.00  0.00     0.009 A 
HETATM   12  C   UNL     1       5.655  -3.795   0.000  1.00  0.00    -0.045 A 
HETATM   13  C   UNL     1       3.057  -3.795   0.000  1.00  0.00     0.009 A 
HETATM   14  C   UNL     1       6.954  -4.545   0.000  1.00  0.00     0.022 A 
HETATM   15  C   UNL     1       4.356  -4.545   0.000  1.00  0.00     0.022 A 
ENDROOT
TORSDOF 0
