REMARK  1 active torsions:
REMARK  status: ('A' for Active; 'I' for Inactive)
REMARK       I    between atoms: N_3  and  C_24 
REMARK    1  A    between atoms: C_10  and  C_14 
ROOT
HETATM    1  O   UNL     1       3.862  -0.201   0.000  1.00  0.00    -0.223 OA
HETATM    2  O   UNL     1       6.302   5.281   0.000  1.00  0.00    -0.308 OA
HETATM    3  O   UNL     1       8.404   6.808   0.000  1.00  0.00    -0.189 OA
HETATM    4  C   UNL     1       3.590   2.383   0.000  1.00  0.00     0.035 A 
HETATM    5  C   UNL     1       4.200   3.754   0.000  1.00  0.00     0.053 A 
HETATM    6  C   UNL     1       5.692   3.910   0.000  1.00  0.00     0.070 A 
HETATM    7  C   UNL     1       6.574   2.697   0.000  1.00  0.00    -0.005 A 
HETATM    8  C   UNL     1       4.472   1.170   0.000  1.00  0.00     0.157 A 
HETATM    9  C   UNL     1       8.066   2.854   0.000  1.00  0.00    -0.022 A 
HETATM   10  C   UNL     1       7.794   5.438   0.000  1.00  0.00     0.278 A 
HETATM   11  C   UNL     1       8.676   4.224   0.000  1.00  0.00     0.091 A 
HETATM   12  C   UNL     1       5.964   1.327   0.000  1.00  0.00     0.061 A 
HETATM   13  C   UNL     1       2.548   1.304   0.000  1.00  0.00     0.003 C 
HETATM   14  C   UNL     1       2.347   3.222   0.000  1.00  0.00     0.003 C 
ENDROOT
BRANCH   9  15
HETATM   15  C   UNL     1       8.947   1.640   0.000  1.00  0.00    -0.006 A 
HETATM   16  C   UNL     1       8.484   0.214   0.000  1.00  0.00     0.134 A 
HETATM   17  N   UNL     1       9.697  -0.668   0.000  1.00  0.00    -0.310 N 
HETATM   18  C   UNL     1      10.911   0.214   0.000  1.00  0.00     0.035 A 
HETATM   19  C   UNL     1       9.697  -2.168   0.000  1.00  0.00     0.172 C 
HETATM   20  C   UNL     1      10.447   1.640   0.000  1.00  0.00    -0.013 A 
HETATM   21  C   UNL     1      12.378  -0.098   0.000  1.00  0.00     0.043 A 
HETATM   22  C   UNL     1      11.451   2.755   0.000  1.00  0.00     0.027 A 
HETATM   23  C   UNL     1      12.918   2.443   0.000  1.00  0.00     0.005 A 
HETATM   24  C   UNL     1      13.382   1.016   0.000  1.00  0.00     0.007 A 
HETATM   25  O   UNL     1       8.398  -2.918   0.000  1.00  0.00    -0.176 OA
HETATM   26  C   UNL     1      10.996  -2.918   0.000  1.00  0.00     0.081 C 
ENDBRANCH   9  15
TORSDOF 1
