REMARK  8 active torsions:
REMARK  status: ('A' for Active; 'I' for Inactive)
REMARK    1  A    between atoms: C_2  and  C_3 
REMARK    2  A    between atoms: C_2  and  O_4 
REMARK    3  A    between atoms: C_3  and  C_5 
REMARK    4  A    between atoms: O_4  and  C_15 
REMARK    5  A    between atoms: C_5  and  C_7 
REMARK    6  A    between atoms: C_10  and  C_12 
REMARK    7  A    between atoms: C_12  and  O_14 
REMARK    8  A    between atoms: O_14  and  C_17 
ROOT
HETATM    1  C   UNL     1       7.790   4.826   0.000  1.00  0.00     0.049 A 
HETATM    2  C   UNL     1       7.327   3.399   0.000  1.00  0.00     0.022 A 
HETATM    3  H   UNL     1       8.540   1.018   0.000  1.00  0.00     0.165 HD
HETATM    4  N   UNL     1       8.540   2.518   0.000  1.00  0.00    -0.357 N 
HETATM    5  C   UNL     1       9.754   3.399   0.000  1.00  0.00     0.083 A 
HETATM    6  C   UNL     1       9.290   4.826   0.000  1.00  0.00     0.054 A 
ENDROOT
BRANCH   2   7
HETATM    7  C   UNL     1       5.900   2.936   0.000  1.00  0.00     0.031 C 
BRANCH   7   8
HETATM    8  C   UNL     1       4.785   3.939   0.000  1.00  0.00     0.068 C 
BRANCH   8   9
HETATM    9  C   UNL     1       3.359   3.476   0.000  1.00  0.00     0.216 C 
HETATM   10  O   UNL     1       2.244   4.479   0.000  1.00  0.00    -0.164 OA
BRANCH   9  11
HETATM   11  O   UNL     1       3.047   2.009   0.000  1.00  0.00    -0.310 OA
BRANCH  11  12
HETATM   12  C   UNL     1       4.162   1.005   0.000  1.00  0.00     0.151 C 
HETATM   13  C   UNL     1       3.850  -0.462   0.000  1.00  0.00     0.035 C 
ENDBRANCH  11  12
ENDBRANCH   9  11
ENDBRANCH   8   9
ENDBRANCH   7   8
ENDBRANCH   2   7
BRANCH   5  14
HETATM   14  C   UNL     1      11.180   2.936   0.000  1.00  0.00     0.240 C 
HETATM   15  O   UNL     1      12.295   3.939   0.000  1.00  0.00    -0.162 OA
BRANCH  14  16
HETATM   16  O   UNL     1      11.492   1.468   0.000  1.00  0.00    -0.308 OA
BRANCH  16  17
HETATM   17  C   UNL     1      12.919   1.005   0.000  1.00  0.00     0.151 C 
HETATM   18  C   UNL     1      14.034   2.009   0.000  1.00  0.00     0.035 C 
ENDBRANCH  16  17
ENDBRANCH  14  16
ENDBRANCH   5  14
TORSDOF 8
