REMARK  1 active torsions:
REMARK  status: ('A' for Active; 'I' for Inactive)
REMARK    1  A    between atoms: C_1  and  S_9 
ROOT
HETATM    1  C   UNL     1       2.873   5.524   0.000  1.00  0.00     0.023 A 
HETATM    2  C   UNL     1       0.275   5.524   0.000  1.00  0.00     0.028 A 
HETATM    3  C   UNL     1       4.172   4.774   0.000  1.00  0.00     0.181 A 
HETATM    4  C   UNL     1       1.574   4.774   0.000  1.00  0.00    -0.004 A 
HETATM    5  C   UNL     1      -1.024   4.774   0.000  1.00  0.00     0.005 A 
HETATM    6  C   UNL     1       1.574   3.275   0.000  1.00  0.00     0.076 A 
HETATM    7  C   UNL     1      -1.024   3.275   0.000  1.00  0.00     0.007 A 
HETATM    8  C   UNL     1       0.275   2.525   0.000  1.00  0.00     0.047 A 
HETATM    9  N   UNL     1       2.873   2.525   0.000  1.00  0.00    -0.157 NA
HETATM   10  N   UNL     1       4.172   3.275   0.000  1.00  0.00    -0.170 NA
ENDROOT
BRANCH   1  11
HETATM   11  S   UNL     1       2.873   7.024   0.000  1.00  0.00    -0.144 SA
HETATM   12  H   UNL     1       4.172   7.774   0.000  1.00  0.00     0.107 HD
ENDBRANCH   1  11
TORSDOF 1
