REMARK  2 active torsions:
REMARK  status: ('A' for Active; 'I' for Inactive)
REMARK    1  A    between atoms: C_5  and  N_7 
REMARK       I    between atoms: N_7  and  C_8 
REMARK    2  A    between atoms: C_8  and  C_10 
ROOT
HETATM    1  H   UNL     1      -4.274  -1.022   0.000  1.00  0.00     0.186 HD
HETATM    2  N   UNL     1      -2.804  -0.719   0.000  1.00  0.00    -0.258 N 
HETATM    3  N   UNL     1      -2.186   0.648   0.000  1.00  0.00     0.018 NA
HETATM    4  N   UNL     1      -0.392  -0.987   0.000  1.00  0.00    -0.058 NA
HETATM    5  C   UNL     1      -0.695   0.482   0.000  1.00  0.00     0.765 A 
HETATM    6  C   UNL     1      -1.696  -1.729   0.000  1.00  0.00     0.264 A 
ENDROOT
BRANCH   5   7
HETATM    7  N   UNL     1       0.315   1.590   0.000  1.00  0.00    -0.025 NA
HETATM    8  C   UNL     1       1.781   1.269   0.000  1.00  0.00     0.294 C 
HETATM    9  O   UNL     1       2.791   2.378   0.000  1.00  0.00    -0.162 OA
BRANCH   8  10
HETATM   10  C   UNL     1       2.235  -0.160   0.000  1.00  0.00     0.258 C 
HETATM   11  O   UNL     1       3.701  -0.481   0.000  1.00  0.00    -0.641 OA
HETATM   12  O   UNL     1       1.225  -1.268   0.000  1.00  0.00    -0.641 OA
ENDBRANCH   8  10
ENDBRANCH   5   7
TORSDOF 2
