REMARK  8 active torsions:
REMARK  status: ('A' for Active; 'I' for Inactive)
REMARK    1  A    between atoms: C_6  and  C_16 
REMARK    2  A    between atoms: C_12  and  C_13 
REMARK    3  A    between atoms: C_12  and  O_17 
REMARK    4  A    between atoms: C_13  and  C_14 
REMARK    5  A    between atoms: C_14  and  O_15 
REMARK    6  A    between atoms: O_15  and  C_16 
REMARK    7  A    between atoms: O_17  and  C_18 
REMARK    8  A    between atoms: C_18  and  C_19 
ROOT
HETATM    1  C   UNL     1       8.356   0.882   0.000  1.00  0.00     0.064 C 
ENDROOT
BRANCH   1   2
HETATM    2  C   UNL     1       7.606  -0.417   0.000  1.00  0.00     0.145 C 
BRANCH   2   3
HETATM    3  O   UNL     1       6.106  -0.417   0.000  1.00  0.00    -0.350 OA
BRANCH   3   4
HETATM    4  C   UNL     1       5.356   0.882   0.000  1.00  0.00     0.169 C 
BRANCH   4   5
HETATM    5  C   UNL     1       3.856   0.882   0.000  1.00  0.00     0.036 A 
HETATM    6  C   UNL     1       2.974   2.095   0.000  1.00  0.00     0.223 A 
HETATM    7  O   UNL     1       1.548   1.632   0.000  1.00  0.00    -0.309 OA
HETATM    8  O   UNL     1       3.438   3.522   0.000  1.00  0.00    -0.164 OA
HETATM    9  C   UNL     1       1.548   0.132   0.000  1.00  0.00     0.156 A 
HETATM   10  C   UNL     1       2.974  -0.332   0.000  1.00  0.00     0.061 A 
ENDBRANCH   4   5
ENDBRANCH   3   4
ENDBRANCH   2   3
ENDBRANCH   1   2
BRANCH   1  11
HETATM   11  C   UNL     1       9.856   0.882   0.000  1.00  0.00     0.145 C 
BRANCH  11  12
HETATM   12  O   UNL     1      10.606  -0.417   0.000  1.00  0.00    -0.350 OA
BRANCH  12  13
HETATM   13  C   UNL     1      12.106  -0.417   0.000  1.00  0.00     0.169 C 
BRANCH  13  14
HETATM   14  C   UNL     1      12.856  -1.716   0.000  1.00  0.00     0.036 A 
HETATM   15  C   UNL     1      14.348  -1.873   0.000  1.00  0.00     0.223 A 
HETATM   16  O   UNL     1      15.351  -0.758   0.000  1.00  0.00    -0.164 OA
HETATM   17  O   UNL     1      14.659  -3.340   0.000  1.00  0.00    -0.309 OA
HETATM   18  C   UNL     1      13.361  -4.090   0.000  1.00  0.00     0.156 A 
HETATM   19  C   UNL     1      12.246  -3.086   0.000  1.00  0.00     0.061 A 
ENDBRANCH  13  14
ENDBRANCH  12  13
ENDBRANCH  11  12
ENDBRANCH   1  11
TORSDOF 8
