REMARK  0 active torsions:
REMARK  status: ('A' for Active; 'I' for Inactive)
ROOT
HETATM    1  O   UNL     1      -5.729  -1.985   0.000  1.00  0.00    -0.315 OA
HETATM    2  O   UNL     1      -3.004  -6.198   0.000  1.00  0.00    -0.163 OA
HETATM    3  O   UNL     1      -1.705  -3.948   0.000  1.00  0.00    -0.311 OA
HETATM    4  C   UNL     1      -3.004  -1.698   0.000  1.00  0.00     0.082 A 
HETATM    5  C   UNL     1      -4.303  -2.448   0.000  1.00  0.00     0.083 A 
HETATM    6  C   UNL     1      -1.705  -2.448   0.000  1.00  0.00     0.130 A 
HETATM    7  C   UNL     1      -4.303  -3.948   0.000  1.00  0.00     0.066 A 
HETATM    8  C   UNL     1      -3.004  -4.698   0.000  1.00  0.00     0.230 A 
HETATM    9  C   UNL     1      -5.729  -4.412   0.000  1.00  0.00     0.009 A 
HETATM   10  C   UNL     1      -8.103  -3.355   0.000  1.00  0.00     0.104 A 
HETATM   11  C   UNL     1      -6.611  -3.198   0.000  1.00  0.00     0.080 A 
HETATM   12  C   UNL     1      -8.713  -4.725   0.000  1.00  0.00     0.097 A 
HETATM   13  C   UNL     1      -7.831  -5.939   0.000  1.00  0.00     0.095 A 
HETATM   14  C   UNL     1      -6.340  -5.782   0.000  1.00  0.00     0.081 A 
HETATM   15  O   UNL     1     -10.205  -4.882   0.000  1.00  0.00    -0.330 OA
HETATM   16  C   UNL     1     -10.815  -6.252   0.000  1.00  0.00     0.181 A 
HETATM   17  O   UNL     1      -8.441  -7.309   0.000  1.00  0.00    -0.330 OA
HETATM   18  C   UNL     1      -9.933  -7.466   0.000  1.00  0.00     0.181 A 
HETATM   19  C   UNL     1      -0.406  -1.698   0.000  1.00  0.00     0.033 C 
ENDROOT
TORSDOF 0
