REMARK  0 active torsions:
REMARK  status: ('A' for Active; 'I' for Inactive)
ROOT
HETATM    1  C   UNL     1      -2.049   7.500   0.000  1.00  0.00     0.077 A 
HETATM    2  C   UNL     1      -0.750   6.750   0.000  1.00  0.00     0.058 A 
HETATM    3  C   UNL     1      -3.348   6.750   0.000  1.00  0.00     0.044 A 
HETATM    4  C   UNL     1      -4.647   7.500   0.000  1.00  0.00     0.094 A 
HETATM    5  C   UNL     1      -5.946   6.750   0.000  1.00  0.00    -0.002 A 
HETATM    6  C   UNL     1      -0.750   5.250   0.000  1.00  0.00     0.058 A 
HETATM    7  C   UNL     1      -3.348   5.250   0.000  1.00  0.00     0.044 A 
HETATM    8  C   UNL     1      -5.946   5.250   0.000  1.00  0.00    -0.002 A 
HETATM    9  C   UNL     1      -2.049   4.500   0.000  1.00  0.00     0.077 A 
HETATM   10  C   UNL     1      -4.647   4.500   0.000  1.00  0.00     0.094 A 
HETATM   11  C   UNL     1      -7.245   7.500   0.000  1.00  0.00     0.033 C 
HETATM   12  C   UNL     1      -7.245   4.500   0.000  1.00  0.00     0.033 C 
HETATM   13  O   UNL     1      -2.049   9.000   0.000  1.00  0.00    -0.310 OA
HETATM   14  C   UNL     1      -3.348   9.750   0.000  1.00  0.00     0.244 A 
HETATM   15  O   UNL     1      -4.647   9.000   0.000  1.00  0.00    -0.306 OA
HETATM   16  C   UNL     1      -3.348  11.250   0.000  1.00  0.00     0.067 C 
HETATM   17  O   UNL     1      -2.049   3.000   0.000  1.00  0.00    -0.310 OA
HETATM   18  C   UNL     1      -3.348   2.250   0.000  1.00  0.00     0.244 A 
HETATM   19  O   UNL     1      -4.647   3.000   0.000  1.00  0.00    -0.306 OA
HETATM   20  C   UNL     1      -3.348   0.750   0.000  1.00  0.00     0.067 C 
ENDROOT
TORSDOF 0
