REMARK  4 active torsions:
REMARK  status: ('A' for Active; 'I' for Inactive)
REMARK    1  A    between atoms: C_3  and  N_7 
REMARK    2  A    between atoms: N_7  and  C_8 
REMARK    3  A    between atoms: C_8  and  C_11 
REMARK    4  A    between atoms: C_11  and  C_12 
ROOT
HETATM    1  C   UNL     1      -1.727   1.016   0.000  1.00  0.00     0.047 A 
HETATM    2  C   UNL     1      -3.227   0.985   0.000  1.00  0.00     0.007 A 
HETATM    3  C   UNL     1      -0.950  -0.267   0.000  1.00  0.00     0.075 A 
HETATM    4  C   UNL     1      -1.673  -1.581   0.000  1.00  0.00     0.121 A 
HETATM    5  C   UNL     1      -3.950  -0.329   0.000  1.00  0.00     0.007 A 
HETATM    6  C   UNL     1      -3.173  -1.612   0.000  1.00  0.00     0.056 A 
HETATM    7  O   UNL     1      -0.896  -2.864   0.000  1.00  0.00    -0.194 OA
ENDROOT
BRANCH   3   8
HETATM    8  N   UNL     1       0.549  -0.235   0.000  1.00  0.00    -0.275 NA
BRANCH   8   9
HETATM    9  C   UNL     1       1.033   1.185   0.000  1.00  0.00     0.106 C 
HETATM   10  C   UNL     1       0.045   2.313   0.000  1.00  0.00     0.026 C 
BRANCH   9  11
HETATM   11  C   UNL     1       2.504   1.476   0.000  1.00  0.00     0.057 C 
BRANCH  11  12
HETATM   12  C   UNL     1       2.988   2.896   0.000  1.00  0.00     0.154 C 
HETATM   13  O   UNL     1       2.000   4.025   0.000  1.00  0.00    -0.223 OA
HETATM   14  C   UNL     1       4.459   3.187   0.000  1.00  0.00     0.036 C 
ENDBRANCH  11  12
ENDBRANCH   9  11
ENDBRANCH   8   9
ENDBRANCH   3   8
TORSDOF 4
