REMARK  1 active torsions:
REMARK  status: ('A' for Active; 'I' for Inactive)
REMARK    1  A    between atoms: C_2  and  C_7 
ROOT
HETATM    1  N   UNK     1      -4.647  -0.750   0.000  1.00  0.00    -0.271 NA
HETATM    2  C   UNK     1      -3.348  -1.500   0.000  1.00  0.00     0.108 A 
HETATM    3  C   UNK     1      -3.348  -3.000   0.000  1.00  0.00     0.124 A 
HETATM    4  C   UNK     1      -4.647  -3.750   0.000  1.00  0.00     0.058 A 
HETATM    5  C   UNK     1      -5.946  -3.000   0.000  1.00  0.00     0.033 A 
HETATM    6  C   UNK     1      -5.946  -1.500   0.000  1.00  0.00     0.126 A 
HETATM    7  O   UNK     1      -2.049  -3.750   0.000  1.00  0.00    -0.194 OA
ENDROOT
BRANCH   2   8
HETATM    8  C   UNK     1      -2.049  -0.750   0.000  1.00  0.00     0.229 C 
HETATM    9  O   UNK     1      -0.750  -1.500   0.000  1.00  0.00    -0.214 OA
ENDBRANCH   2   8
TORSDOF 1
