REMARK  4 active torsions:
REMARK  status: ('A' for Active; 'I' for Inactive)
REMARK    1  A    between atoms: N_1  and  C_11 
REMARK    2  A    between atoms: N_1  and  N_2 
REMARK    3  A    between atoms: N_2  and  C_4 
REMARK    4  A    between atoms: C_13  and  S_15 
ROOT
HETATM    1  C   UNL     1      -4.272  -4.399   0.000  1.00  0.00     0.044 A 
HETATM    2  C   UNL     1      -5.571  -3.650   0.000  1.00  0.00     0.025 A 
HETATM    3  C   UNL     1      -4.272  -5.899   0.000  1.00  0.00     0.058 A 
HETATM    4  C   UNL     1      -5.571  -6.649   0.000  1.00  0.00     0.044 A 
HETATM    5  C   UNL     1      -6.870  -4.399   0.000  1.00  0.00     0.129 A 
HETATM    6  C   UNL     1      -6.870  -5.899   0.000  1.00  0.00     0.025 A 
ENDROOT
BRANCH   3   7
HETATM    7  N   UNL     1      -2.973  -6.649   0.000  1.00  0.00    -0.158 NA
BRANCH   7   8
HETATM    8  N   UNL     1      -2.973  -8.149   0.000  1.00  0.00    -0.158 NA
BRANCH   8   9
HETATM    9  C   UNL     1      -1.674  -8.899   0.000  1.00  0.00     0.058 A 
HETATM   10  C   UNL     1      -0.375  -8.149   0.000  1.00  0.00     0.043 A 
HETATM   11  C   UNL     1       0.924  -8.899   0.000  1.00  0.00     0.006 A 
HETATM   12  C   UNL     1       0.924 -10.399   0.000  1.00  0.00     0.001 A 
HETATM   13  C   UNL     1      -0.375 -11.149   0.000  1.00  0.00     0.006 A 
HETATM   14  C   UNL     1      -1.674 -10.399   0.000  1.00  0.00     0.043 A 
ENDBRANCH   8   9
ENDBRANCH   7   8
ENDBRANCH   3   7
BRANCH   5  15
HETATM   15  S   UNL     1      -8.169  -3.650   0.000  1.00  0.00     0.115 S 
HETATM   16  O   UNL     1      -7.419  -2.350   0.000  1.00  0.00    -0.594 OA
HETATM   17  O   UNL     1      -9.468  -2.900   0.000  1.00  0.00    -0.594 OA
HETATM   18  O   UNL     1      -8.919  -4.949   0.000  1.00  0.00    -0.594 OA
ENDBRANCH   5  15
TORSDOF 4
