REMARK  1 active torsions:
REMARK  status: ('A' for Active; 'I' for Inactive)
REMARK    1  A    between atoms: C_19  and  CA_20 
ROOT
HETATM    1  N   UNL     1       4.647   2.250   0.000  1.00  0.00    -0.345 N 
HETATM    2  N   UNL     1      10.904   4.189   0.000  1.00  0.00    -0.373 N 
HETATM    3  H   UNL     1      12.391   4.385   0.000  1.00  0.00     0.160 HD
HETATM    4  C   UNL     1       8.544   7.500   0.000  1.00  0.00     0.029 A 
HETATM    5  C   UNL     1       7.245   6.750   0.000  1.00  0.00    -0.039 A 
HETATM    6  C   UNL     1       9.843   6.750   0.000  1.00  0.00     0.048 A 
HETATM    7  C   UNL     1       7.245   5.250   0.000  1.00  0.00    -0.006 A 
HETATM    8  C   UNL     1       9.843   5.250   0.000  1.00  0.00     0.030 A 
HETATM    9  C   UNL     1       5.946   4.500   0.000  1.00  0.00     0.011 A 
HETATM   10  C   UNL     1       4.647   5.250   0.000  1.00  0.00    -0.000 A 
HETATM   11  C   UNL     1       3.348   4.500   0.000  1.00  0.00     0.044 A 
HETATM   12  C   UNL     1       8.544   4.500   0.000  1.00  0.00     0.005 A 
HETATM   13  C   UNL     1       3.348   3.000   0.000  1.00  0.00     0.132 A 
HETATM   14  C   UNL     1       5.946   3.000   0.000  1.00  0.00     0.037 A 
HETATM   15  C   UNL     1       8.544   3.000   0.000  1.00  0.00    -0.015 A 
HETATM   16  C   UNL     1       7.245   2.250   0.000  1.00  0.00     0.067 A 
HETATM   17  C   UNL     1      10.154   2.890   0.000  1.00  0.00     0.121 A 
HETATM   18  CA  UNL     1       3.348   7.500   0.000  1.00  0.00     0.091 A 
HETATM   19  C   UNL     1       4.647   6.750   0.000  1.00  0.00    -0.002 A 
HETATM   20  C   UNL     1       5.946   7.500   0.000  1.00  0.00     0.050 A 
HETATM   21  N   UNL     1       2.049   6.750   0.000  1.00  0.00    -0.222 NA
HETATM   22  C   UNL     1       2.049   5.250   0.000  1.00  0.00     0.210 A 
HETATM   23  O   UNL     1       0.750   4.500   0.000  1.00  0.00    -0.170 OA
HETATM   24  C   UNL     1       4.647   0.750   0.000  1.00  0.00     0.126 C 
ENDROOT
BRANCH  18  25
HETATM   25  C   UNL     1       3.348   9.000   0.000  1.00  0.00     0.227 C 
HETATM   26  O   UNL     1       4.647   9.750   0.000  1.00  0.00    -0.214 OA
ENDBRANCH  18  25
TORSDOF 1
