REMARK  8 active torsions:
REMARK  status: ('A' for Active; 'I' for Inactive)
REMARK    1  A    between atoms: N_1  and  C_17 
REMARK    2  A    between atoms: N_3  and  C_6 
REMARK    3  A    between atoms: N_3  and  C_19 
REMARK    4  A    between atoms: C_11  and  N_14 
REMARK    5  A    between atoms: C_13  and  C_19 
REMARK    6  A    between atoms: C_17  and  C_18 
REMARK    7  A    between atoms: C_18  and  O_20 
REMARK    8  A    between atoms: O_20  and  C_21 
ROOT
HETATM    1  N   UNL     1     -10.487  -1.401   0.000  1.00  0.00    -0.296 N 
HETATM    2  N   UNL     1     -11.700  -3.502   0.000  1.00  0.00    -0.248 NA
HETATM    3  C   UNL     1     -11.954  -1.089   0.000  1.00  0.00     0.192 A 
HETATM    4  C   UNL     1     -12.704  -2.388   0.000  1.00  0.00     0.195 A 
HETATM    5  C   UNL     1     -10.330  -2.892   0.000  1.00  0.00     0.142 A 
ENDROOT
BRANCH   5   6
HETATM    6  C   UNL     1      -9.031  -3.642   0.000  1.00  0.00     0.198 C 
BRANCH   6   7
HETATM    7  N   UNL     1      -7.732  -2.892   0.000  1.00  0.00    -0.207 N 
HETATM    8  O   UNL     1      -7.732  -1.392   0.000  1.00  0.00    -0.085 OA
BRANCH   7   9
HETATM    9  C   UNL     1      -6.433  -3.642   0.000  1.00  0.00     0.041 A 
HETATM   10  C   UNL     1      -5.134  -2.892   0.000  1.00  0.00     0.042 A 
HETATM   11  C   UNL     1      -3.835  -3.642   0.000  1.00  0.00     0.006 A 
HETATM   12  C   UNL     1      -3.835  -5.142   0.000  1.00  0.00     0.001 A 
HETATM   13  C   UNL     1      -5.134  -5.892   0.000  1.00  0.00     0.006 A 
HETATM   14  C   UNL     1      -6.433  -5.142   0.000  1.00  0.00     0.042 A 
ENDBRANCH   7   9
ENDBRANCH   6   7
ENDBRANCH   5   6
BRANCH   1  15
HETATM   15  C   UNL     1      -9.372  -0.397   0.000  1.00  0.00     0.141 C 
BRANCH  15  16
HETATM   16  C   UNL     1      -9.684   1.070   0.000  1.00  0.00     0.170 C 
BRANCH  16  17
HETATM   17  O   UNL     1      -8.569   2.074   0.000  1.00  0.00    -0.327 OA
BRANCH  17  18
HETATM   18  C   UNL     1      -7.143   1.611   0.000  1.00  0.00     0.270 C 
HETATM   19  O   UNL     1      -6.028   2.614   0.000  1.00  0.00    -0.190 OA
HETATM   20  C   UNL     1      -6.831   0.143   0.000  1.00  0.00     0.070 C 
ENDBRANCH  17  18
ENDBRANCH  16  17
ENDBRANCH  15  16
ENDBRANCH   1  15
BRANCH   3  21
HETATM   21  N   UNL     1     -12.564   0.282   0.000  1.00  0.00    -0.099 N 
HETATM   22  O   UNL     1     -14.056   0.438   0.000  1.00  0.00    -0.531 OA
HETATM   23  O   UNL     1     -11.683   1.495   0.000  1.00  0.00    -0.531 OA
ENDBRANCH   3  21
TORSDOF 8
