REMARK  2 active torsions:
REMARK  status: ('A' for Active; 'I' for Inactive)
REMARK    1  A    between atoms: C_4  and  C_10 
REMARK    2  A    between atoms: C_5  and  N_17 
ROOT
HETATM    1 AS   UNL     1      -1.379  -7.137   0.000  1.00  0.00     0.000 As
HETATM    2  C   UNL     1      -4.821  -3.650   0.000  1.00  0.00     0.030 A 
HETATM    3  C   UNL     1      -6.120  -4.399   0.000  1.00  0.00     0.050 A 
HETATM    4  C   UNL     1      -3.522  -4.399   0.000  1.00  0.00    -0.021 A 
HETATM    5  C   UNL     1      -6.120  -5.899   0.000  1.00  0.00     0.085 A 
HETATM    6  C   UNL     1      -3.522  -5.899   0.000  1.00  0.00     0.176 A 
HETATM    7  C   UNL     1      -4.821  -6.649   0.000  1.00  0.00     0.083 A 
HETATM    8  O   UNL     1      -1.767  -8.586   0.000  1.00  0.00     0.000 OA
HETATM    9  O   UNL     1      -2.129  -5.838   0.000  1.00  0.00    -0.219 OA
HETATM   10  O   UNL     1       0.070  -6.749   0.000  1.00  0.00     0.000 OA
ENDROOT
BRANCH   4  11
HETATM   11  C   UNL     1      -2.223  -3.650   0.000  1.00  0.00    -0.050 A 
HETATM   12  C   UNL     1      -2.223  -2.150   0.000  1.00  0.00     0.021 A 
HETATM   13  C   UNL     1      -0.924  -1.399   0.000  1.00  0.00     0.004 A 
HETATM   14  C   UNL     1       0.375  -2.150   0.000  1.00  0.00     0.001 A 
HETATM   15  C   UNL     1       0.375  -3.650   0.000  1.00  0.00     0.004 A 
HETATM   16  C   UNL     1      -0.924  -4.399   0.000  1.00  0.00     0.021 A 
ENDBRANCH   4  11
BRANCH   5  17
HETATM   17  N   UNL     1      -7.419  -6.649   0.000  1.00  0.00    -0.122 N 
HETATM   18  O   UNL     1      -8.718  -5.899   0.000  1.00  0.00    -0.532 OA
HETATM   19  O   UNL     1      -7.419  -8.149   0.000  1.00  0.00    -0.532 OA
ENDBRANCH   5  17
TORSDOF 2
