REMARK  5 active torsions:
REMARK  status: ('A' for Active; 'I' for Inactive)
REMARK    1  A    between atoms: N_1  and  C_25 
REMARK    2  A    between atoms: N_19  and  C_20 
REMARK    3  A    between atoms: N_19  and  C_21 
REMARK    4  A    between atoms: N_19  and  C_24 
REMARK    5  A    between atoms: C_24  and  C_25 
ROOT
HETATM    1  N   UNL     1       9.025  -5.132   0.000  1.00  0.00    -0.329 N 
HETATM    2  S   UNL     1       9.025  -8.132   0.000  1.00  0.00    -0.093 SA
HETATM    3  C   UNL     1      12.922  -2.882   0.000  1.00  0.00     0.005 A 
HETATM    4  C   UNL     1      11.623  -3.632   0.000  1.00  0.00     0.027 A 
HETATM    5  C   UNL     1      14.221  -3.632   0.000  1.00  0.00     0.005 A 
HETATM    6  C   UNL     1      14.221  -5.132   0.000  1.00  0.00     0.022 A 
HETATM    7  C   UNL     1      11.623  -5.132   0.000  1.00  0.00    -0.014 A 
HETATM    8  C   UNL     1      12.922  -5.882   0.000  1.00  0.00    -0.046 A 
HETATM    9  C   UNL     1      10.324  -5.882   0.000  1.00  0.00     0.057 A 
HETATM   10  C   UNL     1      12.922  -7.382   0.000  1.00  0.00     0.027 A 
HETATM   11  C   UNL     1      10.324  -7.382   0.000  1.00  0.00     0.023 A 
HETATM   12  C   UNL     1      11.623  -8.132   0.000  1.00  0.00     0.039 A 
HETATM   13  C   UNL     1       6.427  -5.132   0.000  1.00  0.00     0.044 A 
HETATM   14  C   UNL     1       5.128  -5.882   0.000  1.00  0.00     0.007 A 
HETATM   15  C   UNL     1       7.726  -5.882   0.000  1.00  0.00     0.039 A 
HETATM   16  C   UNL     1       7.726  -7.382   0.000  1.00  0.00     0.019 A 
HETATM   17  C   UNL     1       5.128  -7.382   0.000  1.00  0.00     0.006 A 
HETATM   18  C   UNL     1       6.427  -8.132   0.000  1.00  0.00     0.034 A 
ENDROOT
BRANCH   1  19
HETATM   19  C   UNL     1       9.025  -3.632   0.000  1.00  0.00     0.130 C 
BRANCH  19  20
HETATM   20  C   UNL     1       7.726  -2.882   0.000  1.00  0.00     0.122 C 
BRANCH  20  21
HETATM   21  N   UNL     1       7.726  -1.382   0.000  1.00  0.00    -0.367 N 
BRANCH  21  22
HETATM   22  C   UNL     1       6.427  -0.632   0.000  1.00  0.00     0.097 C 
HETATM   23  C   UNL     1       6.427   0.868   0.000  1.00  0.00     0.026 C 
ENDBRANCH  21  22
BRANCH  21  24
HETATM   24  C   UNL     1       9.025  -0.632   0.000  1.00  0.00     0.097 C 
HETATM   25  C   UNL     1       9.025   0.868   0.000  1.00  0.00     0.026 C 
ENDBRANCH  21  24
ENDBRANCH  20  21
ENDBRANCH  19  20
ENDBRANCH   1  19
TORSDOF 5
