REMARK  3 active torsions:
REMARK  status: ('A' for Active; 'I' for Inactive)
REMARK    1  A    between atoms: C_3  and  N_8 
REMARK    2  A    between atoms: N_8  and  C_9 
REMARK    3  A    between atoms: C_9  and  C_10 
REMARK       I    between atoms: C_10  and  N_12 
ROOT
HETATM    1 BR   UNL     1      -4.821  -8.149   0.000  1.00  0.00    -0.058 Br
HETATM    2  C   UNL     1      -4.821  -3.650   0.000  1.00  0.00     0.042 A 
HETATM    3  C   UNL     1      -3.522  -4.399   0.000  1.00  0.00     0.037 A 
HETATM    4  C   UNL     1      -6.120  -4.399   0.000  1.00  0.00     0.011 A 
HETATM    5  C   UNL     1      -3.522  -5.899   0.000  1.00  0.00     0.070 A 
HETATM    6  C   UNL     1      -6.120  -5.899   0.000  1.00  0.00     0.030 A 
HETATM    7  C   UNL     1      -4.821  -6.649   0.000  1.00  0.00    -0.004 A 
ENDROOT
BRANCH   3   8
HETATM    8  N   UNL     1      -2.223  -3.650   0.000  1.00  0.00    -0.270 NA
BRANCH   8   9
HETATM    9  C   UNL     1      -0.924  -4.399   0.000  1.00  0.00     0.201 C 
BRANCH   9  10
HETATM   10  C   UNL     1       0.375  -3.650   0.000  1.00  0.00     0.236 C 
HETATM   11  O   UNL     1       1.674  -4.399   0.000  1.00  0.00    -0.170 OA
HETATM   12  N   UNL     1       0.375  -2.150   0.000  1.00  0.00    -0.102 NA
HETATM   13  N   UNL     1      -0.924  -1.399   0.000  1.00  0.00    -0.021 N 
ENDBRANCH   9  10
ENDBRANCH   8   9
ENDBRANCH   3   8
TORSDOF 3
