REMARK  2 active torsions:
REMARK  status: ('A' for Active; 'I' for Inactive)
REMARK    1  A    between atoms: C_4  and  N_18 
REMARK    2  A    between atoms: C_10  and  N_15 
REMARK       I    between atoms: N_15  and  C_16 
REMARK       I    between atoms: C_16  and  N_18 
ROOT
HETATM    1  N   UNL     1      -2.049   3.750   0.000  1.00  0.00    -0.207 NA
HETATM    2  C   UNL     1      -2.049   5.250   0.000  1.00  0.00     0.299 C 
HETATM    3  O   UNL     1      -0.750   6.000   0.000  1.00  0.00    -0.147 OA
HETATM    4  N   UNL     1      -3.348   6.000   0.000  1.00  0.00    -0.212 NA
ENDROOT
BRANCH   1   5
HETATM    5  C   UNL     1      -3.348   3.000   0.000  1.00  0.00     0.069 A 
HETATM    6  C   UNL     1      -4.647   3.750   0.000  1.00  0.00     0.046 A 
HETATM    7  C   UNL     1      -5.946   3.000   0.000  1.00  0.00     0.007 A 
HETATM    8  C   UNL     1      -5.946   1.500   0.000  1.00  0.00     0.006 A 
HETATM    9  C   UNL     1      -4.647   0.750   0.000  1.00  0.00     0.039 A 
HETATM   10  C   UNL     1      -3.348   1.500   0.000  1.00  0.00     0.049 A 
HETATM   11 CL   UNL     1      -2.049   0.750   0.000  1.00  0.00    -0.086 Cl
ENDBRANCH   1   5
BRANCH   4  12
HETATM   12  C   UNL     1      -3.348   7.500   0.000  1.00  0.00     0.041 A 
HETATM   13  C   UNL     1      -4.647   8.250   0.000  1.00  0.00     0.046 A 
HETATM   14  C   UNL     1      -4.647   9.750   0.000  1.00  0.00     0.035 A 
HETATM   15  C   UNL     1      -3.348  10.500   0.000  1.00  0.00    -0.009 A 
HETATM   16 BR   UNL     1      -3.348  12.000   0.000  1.00  0.00    -0.058 Br
HETATM   17  C   UNL     1      -2.049   9.750   0.000  1.00  0.00     0.035 A 
HETATM   18  C   UNL     1      -2.049   8.250   0.000  1.00  0.00     0.046 A 
ENDBRANCH   4  12
TORSDOF 2
