REMARK  2 active torsions:
REMARK  status: ('A' for Active; 'I' for Inactive)
REMARK    1  A    between atoms: C_9  and  N_24 
REMARK    2  A    between atoms: C_17  and  N_24 
ROOT
HETATM    1  N   UNL     1       1.674   7.399   0.000  1.00  0.00    -0.074 N 
HETATM    2  N   UNL     1      -0.924   7.399   0.000  1.00  0.00    -0.042 NA
HETATM    3  N   UNL     1      -2.039   9.903   0.000  1.00  0.00    -0.258 N 
HETATM    4 CL   UNL     1       2.973   6.649   0.000  1.00  0.00    -0.045 Cl
HETATM    5  N   UNL     1      -1.429  11.274   0.000  1.00  0.00    -0.115 NA
HETATM    6  C   UNL     1      -0.924   8.899   0.000  1.00  0.00     0.174 A 
HETATM    7  C   UNL     1       0.375   9.649   0.000  1.00  0.00     0.069 A 
HETATM    8  C   UNL     1       1.674   8.899   0.000  1.00  0.00     0.174 A 
HETATM    9  C   UNL     1       0.063  11.117   0.000  1.00  0.00     0.147 A 
HETATM   10  C   UNL     1       0.375   6.649   0.000  1.00  0.00     0.747 A 
HETATM   11  C   UNL     1       4.272   8.899   0.000  1.00  0.00     0.068 A 
HETATM   12  C   UNL     1       4.272   7.399   0.000  1.00  0.00     0.056 A 
HETATM   13  C   UNL     1       5.571   9.649   0.000  1.00  0.00     0.046 A 
HETATM   14  C   UNL     1       5.571   6.649   0.000  1.00  0.00     0.040 A 
HETATM   15  C   UNL     1       6.870   8.899   0.000  1.00  0.00     0.007 A 
HETATM   16  C   UNL     1       6.870   7.399   0.000  1.00  0.00     0.006 A 
HETATM   17  N   UNL     1       2.973   9.649   0.000  1.00  0.00    -0.231 NA
HETATM   18  C   UNL     1      -3.506   9.591   0.000  1.00  0.00     0.149 C 
ENDROOT
BRANCH  10  19
HETATM   19  N   UNL     1       0.375   5.149   0.000  1.00  0.00    -0.064 NA
BRANCH  19  20
HETATM   20  C   UNL     1      -0.924   4.399   0.000  1.00  0.00     0.084 A 
HETATM   21  C   UNL     1      -2.223   5.149   0.000  1.00  0.00     0.047 A 
HETATM   22  C   UNL     1      -3.522   4.399   0.000  1.00  0.00     0.007 A 
HETATM   23  C   UNL     1      -3.522   2.900   0.000  1.00  0.00     0.006 A 
HETATM   24  C   UNL     1      -2.223   2.150   0.000  1.00  0.00     0.039 A 
HETATM   25  C   UNL     1      -0.924   2.900   0.000  1.00  0.00     0.050 A 
HETATM   26 CL   UNL     1       0.375   2.150   0.000  1.00  0.00    -0.086 Cl
ENDBRANCH  19  20
ENDBRANCH  10  19
TORSDOF 2
