REMARK  1 active torsions:
REMARK  status: ('A' for Active; 'I' for Inactive)
REMARK    1  A    between atoms: C_14  and  S_15 
ROOT
HETATM    1  N   UNL     1      -7.156  -3.000   0.000  1.00  0.00    -0.210 NA
HETATM    2  N   UNL     1      -5.857  -5.250   0.000  1.00  0.00    -0.319 N 
HETATM    3  S   UNL     1      -5.857  -0.750   0.000  1.00  0.00    -0.056 SA
HETATM    4  H   UNL     1      -5.857  -6.750   0.000  1.00  0.00     0.169 HD
HETATM    5  N   UNL     1      -3.132  -2.537   0.000  1.00  0.00    -0.327 N 
HETATM    6  H   UNL     1      -2.668  -1.110   0.000  1.00  0.00     0.168 HD
HETATM    7  N   UNL     1      -3.132  -4.963   0.000  1.00  0.00    -0.317 N 
HETATM    8  H   UNL     1      -2.668  -6.390   0.000  1.00  0.00     0.170 HD
HETATM    9  S   UNL     1      -0.750  -3.750   0.000  1.00  0.00    -0.040 SA
HETATM   10  C   UNL     1      -5.857  -2.250   0.000  1.00  0.00     0.156 A 
HETATM   11  C   UNL     1      -4.558  -3.000   0.000  1.00  0.00     0.119 A 
HETATM   12  C   UNL     1      -4.558  -4.500   0.000  1.00  0.00     0.140 A 
HETATM   13  C   UNL     1      -2.250  -3.750   0.000  1.00  0.00     0.178 A 
HETATM   14  C   UNL     1      -7.156  -4.500   0.000  1.00  0.00     0.170 A 
ENDROOT
BRANCH  14  15
HETATM   15  S   UNL     1      -8.455  -5.250   0.000  1.00  0.00    -0.076 SA
HETATM   16  C   UNL     1      -9.754  -4.500   0.000  1.00  0.00     0.077 C 
ENDBRANCH  14  15
TORSDOF 1
