REMARK  4 active torsions:
REMARK  status: ('A' for Active; 'I' for Inactive)
REMARK    1  A    between atoms: C_8  and  O_13 
REMARK    2  A    between atoms: C_9  and  O_10 
REMARK    3  A    between atoms: O_10  and  C_11 
REMARK    4  A    between atoms: O_13  and  C_14 
ROOT
HETATM    1  N   UNL     1      -5.656  -4.140   0.000  1.00  0.00    -0.182 NA
HETATM    2  N   UNL     1      -4.357  -1.890   0.000  1.00  0.00    -0.187 NA
HETATM    3  N   UNL     1      -1.632  -2.177   0.000  1.00  0.00    -0.258 N 
HETATM    4  N   UNL     1      -0.750  -3.390   0.000  1.00  0.00    -0.115 NA
HETATM    5  C   UNL     1      -3.058  -2.640   0.000  1.00  0.00     0.159 A 
HETATM    6  C   UNL     1      -3.058  -4.140   0.000  1.00  0.00     0.073 A 
HETATM    7  C   UNL     1      -1.632  -4.604   0.000  1.00  0.00     0.147 A 
HETATM    8  C   UNL     1      -4.357  -4.890   0.000  1.00  0.00     0.182 A 
HETATM    9  C   UNL     1      -5.656  -2.640   0.000  1.00  0.00     0.273 A 
HETATM   10  C   UNL     1      -1.168  -0.750   0.000  1.00  0.00     0.149 C 
ENDROOT
BRANCH   8  11
HETATM   11  O   UNL     1      -4.357  -6.390   0.000  1.00  0.00    -0.315 OA
BRANCH  11  12
HETATM   12  C   UNL     1      -5.656  -7.140   0.000  1.00  0.00     0.151 C 
HETATM   13  C   UNL     1      -6.955  -6.390   0.000  1.00  0.00     0.035 C 
ENDBRANCH  11  12
ENDBRANCH   8  11
BRANCH   9  14
HETATM   14  O   UNL     1      -6.955  -1.890   0.000  1.00  0.00    -0.300 OA
BRANCH  14  15
HETATM   15  C   UNL     1      -8.254  -2.640   0.000  1.00  0.00     0.152 C 
HETATM   16  C   UNL     1      -9.553  -1.890   0.000  1.00  0.00     0.035 C 
ENDBRANCH  14  15
ENDBRANCH   9  14
TORSDOF 4
