REMARK  0 active torsions:
REMARK  status: ('A' for Active; 'I' for Inactive)
ROOT
HETATM    1  N   UNL     1       0.263   6.455   0.000  1.00  0.00    -0.315 N 
HETATM    2  C   UNL     1      -1.036   7.205   0.000  1.00  0.00     0.031 A 
HETATM    3  C   UNL     1      -2.335   6.455   0.000  1.00  0.00     0.043 A 
HETATM    4  C   UNL     1      -2.335   4.955   0.000  1.00  0.00     0.008 A 
HETATM    5  C   UNL     1      -1.036   4.205   0.000  1.00  0.00     0.023 A 
HETATM    6  C   UNL     1       0.263   4.955   0.000  1.00  0.00     0.107 A 
HETATM    7  C   UNL     1      -1.036   2.705   0.000  1.00  0.00     0.002 C 
HETATM    8  C   UNL     1       1.562   7.205   0.000  1.00  0.00     0.171 A 
HETATM    9  O   UNL     1       2.861   6.455   0.000  1.00  0.00    -0.176 OA
HETATM   10  C   UNL     1       1.562   8.705   0.000  1.00  0.00     0.077 A 
HETATM   11  C   UNL     1       0.263   9.455   0.000  1.00  0.00     0.032 A 
HETATM   12  C   UNL     1      -1.036   8.705   0.000  1.00  0.00    -0.032 A 
HETATM   13  C   UNL     1      -2.336   9.455   0.000  1.00  0.00     0.028 C 
ENDROOT
TORSDOF 0
