REMARK  1 active torsions:
REMARK  status: ('A' for Active; 'I' for Inactive)
REMARK    1  A    between atoms: N_3  and  C_10 
ROOT
HETATM    1  N   UNL     1       2.418  -8.659   0.000  1.00  0.00    -0.231 NA
HETATM    2  N   UNL     1       2.147  -6.075   0.000  1.00  0.00    -0.226 NA
HETATM    3  N   UNL     1       4.520  -4.705   0.000  1.00  0.00    -0.247 N 
HETATM    4  N   UNL     1       5.947  -5.168   0.000  1.00  0.00    -0.112 NA
HETATM    5  C   UNL     1       3.639  -5.918   0.000  1.00  0.00     0.155 A 
HETATM    6  C   UNL     1       4.520  -7.132   0.000  1.00  0.00     0.063 A 
HETATM    7  C   UNL     1       3.910  -8.502   0.000  1.00  0.00     0.148 A 
HETATM    8  C   UNL     1       5.947  -6.668   0.000  1.00  0.00     0.146 A 
HETATM    9  C   UNL     1       1.537  -7.446   0.000  1.00  0.00     0.253 A 
HETATM   10  N   UNL     1       4.792  -9.716   0.000  1.00  0.00    -0.080 NA
ENDROOT
BRANCH   3  11
HETATM   11  C   UNL     1       4.057  -3.278   0.000  1.00  0.00     0.034 A 
HETATM   12  C   UNL     1       5.060  -2.164   0.000  1.00  0.00     0.041 A 
HETATM   13  C   UNL     1       4.597  -0.737   0.000  1.00  0.00     0.006 A 
HETATM   14  C   UNL     1       3.130  -0.425   0.000  1.00  0.00     0.001 A 
HETATM   15  C   UNL     1       2.126  -1.540   0.000  1.00  0.00     0.006 A 
HETATM   16  C   UNL     1       2.590  -2.966   0.000  1.00  0.00     0.041 A 
ENDBRANCH   3  11
TORSDOF 1
