REMARK  1 active torsions:
REMARK  status: ('A' for Active; 'I' for Inactive)
REMARK    1  A    between atoms: C_16  and  N_18 
ROOT
HETATM    1 CL   UNL     1       1.024  -0.275   0.000  1.00  0.00    -0.041 Cl
HETATM    2  N   UNL     1       2.324  -2.525   0.000  1.00  0.00    -0.198 NA
HETATM    3  N   UNL     1       3.623  -0.275   0.000  1.00  0.00    -0.198 NA
HETATM    4  N   UNL     1       6.348  -0.561   0.000  1.00  0.00    -0.232 N 
HETATM    5  N   UNL     1       7.230  -1.774   0.000  1.00  0.00    -0.168 NA
HETATM    6  C   UNL     1       2.324  -1.024   0.000  1.00  0.00     0.227 A 
HETATM    7  C   UNL     1       4.922  -1.024   0.000  1.00  0.00     0.167 A 
HETATM    8  C   UNL     1       4.922  -2.525   0.000  1.00  0.00     0.090 A 
HETATM    9  C   UNL     1       3.623  -3.275   0.000  1.00  0.00     0.169 A 
HETATM   10  C   UNL     1       6.348  -2.988   0.000  1.00  0.00     0.104 A 
HETATM   11  C   UNL     1       4.922  -5.524   0.000  1.00  0.00     0.059 A 
HETATM   12  C   UNL     1       6.221  -4.774   0.000  1.00  0.00     0.017 A 
HETATM   13  C   UNL     1       4.922  -7.024   0.000  1.00  0.00     0.052 A 
HETATM   14  C   UNL     1       7.520  -5.524   0.000  1.00  0.00     0.075 A 
HETATM   15  C   UNL     1       6.221  -7.774   0.000  1.00  0.00     0.052 A 
HETATM   16  C   UNL     1       7.520  -7.024   0.000  1.00  0.00     0.087 A 
HETATM   17  N   UNL     1       3.623  -4.774   0.000  1.00  0.00    -0.231 NA
HETATM   18  C   UNL     1       6.812   0.866   0.000  1.00  0.00     0.156 C 
ENDROOT
BRANCH  16  19
HETATM   19  N   UNL     1       8.819  -7.774   0.000  1.00  0.00    -0.122 N 
HETATM   20  O   UNL     1       8.819  -9.274   0.000  1.00  0.00    -0.532 OA
HETATM   21  O   UNL     1      10.118  -7.024   0.000  1.00  0.00    -0.532 OA
ENDBRANCH  16  19
TORSDOF 1
