REMARK  4 active torsions:
REMARK  status: ('A' for Active; 'I' for Inactive)
REMARK    1  A    between atoms: C_3  and  N_12 
REMARK    2  A    between atoms: C_10  and  C_11 
REMARK    3  A    between atoms: C_10  and  N_12 
REMARK    4  A    between atoms: C_11  and  C_13 
ROOT
HETATM    1  C   UNL     1     -10.675   2.510   0.000  1.00  0.00     0.227 A 
HETATM    2  N   UNL     1     -10.675   1.010   0.000  1.00  0.00    -0.198 NA
HETATM    3  C   UNL     1      -9.376   0.260   0.000  1.00  0.00     0.161 A 
HETATM    4  C   UNL     1      -8.077   1.010   0.000  1.00  0.00     0.070 A 
HETATM    5  C   UNL     1      -8.077   2.510   0.000  1.00  0.00     0.180 A 
HETATM    6  N   UNL     1      -9.376   3.260   0.000  1.00  0.00    -0.197 NA
HETATM    7  C   UNL     1      -6.651   0.547   0.000  1.00  0.00     0.149 A 
HETATM    8  N   UNL     1      -5.769   1.760   0.000  1.00  0.00    -0.093 NA
HETATM    9  N   UNL     1      -6.651   2.974   0.000  1.00  0.00    -0.160 NA
HETATM   10 CL   UNL     1     -11.974   3.260   0.000  1.00  0.00    -0.041 Cl
ENDROOT
BRANCH   3  11
HETATM   11  N   UNL     1      -9.376  -1.240   0.000  1.00  0.00    -0.253 NA
BRANCH  11  12
HETATM   12  C   UNL     1      -8.077  -1.990   0.000  1.00  0.00     0.127 C 
BRANCH  12  13
HETATM   13  C   UNL     1      -6.778  -1.240   0.000  1.00  0.00     0.026 C 
BRANCH  13  14
HETATM   14  C   UNL     1      -5.479  -1.990   0.000  1.00  0.00     0.002 A 
HETATM   15  C   UNL     1      -5.479  -3.490   0.000  1.00  0.00     0.000 A 
HETATM   16  C   UNL     1      -4.180  -4.240   0.000  1.00  0.00     0.000 A 
HETATM   17  C   UNL     1      -2.881  -3.490   0.000  1.00  0.00     0.000 A 
HETATM   18  C   UNL     1      -2.881  -1.990   0.000  1.00  0.00     0.000 A 
HETATM   19  C   UNL     1      -4.180  -1.240   0.000  1.00  0.00     0.000 A 
ENDBRANCH  13  14
ENDBRANCH  12  13
ENDBRANCH  11  12
ENDBRANCH   3  11
TORSDOF 4
