REMARK  4 active torsions:
REMARK  status: ('A' for Active; 'I' for Inactive)
REMARK    1  A    between atoms: C_3  and  N_25 
REMARK    2  A    between atoms: C_6  and  O_26 
REMARK    3  A    between atoms: C_10  and  O_22 
REMARK    4  A    between atoms: O_22  and  C_23 
REMARK       I    between atoms: C_23  and  N_25 
ROOT
HETATM    1  O   UNL     1       2.049 -12.000   0.000  1.00  0.00    -0.288 OA
HETATM    2  C   UNL     1       2.049  -7.500   0.000  1.00  0.00     0.052 A 
HETATM    3  C   UNL     1       0.750  -8.250   0.000  1.00  0.00     0.014 A 
HETATM    4  C   UNL     1       3.348  -8.250   0.000  1.00  0.00     0.077 A 
HETATM    5  C   UNL     1       3.348  -9.750   0.000  1.00  0.00     0.033 A 
HETATM    6  C   UNL     1       0.750  -9.750   0.000  1.00  0.00     0.052 A 
HETATM    7  C   UNL     1       2.049 -10.500   0.000  1.00  0.00     0.081 A 
HETATM    8  C   UNL     1       4.647 -12.000   0.000  1.00  0.00     0.023 A 
HETATM    9  C   UNL     1       5.946 -12.750   0.000  1.00  0.00     0.030 A 
HETATM   10  C   UNL     1       4.647 -10.500   0.000  1.00  0.00    -0.019 A 
HETATM   11  C   UNL     1       5.946  -9.750   0.000  1.00  0.00     0.026 A 
HETATM   12  C   UNL     1       7.245 -12.000   0.000  1.00  0.00     0.005 A 
HETATM   13  C   UNL     1       7.245 -10.500   0.000  1.00  0.00     0.005 A 
HETATM   14  C   UNL     1       3.348 -12.750   0.000  1.00  0.00     0.228 A 
HETATM   15  O   UNL     1       3.348 -14.250   0.000  1.00  0.00    -0.163 OA
ENDROOT
BRANCH   4  16
HETATM   16  O   UNL     1       4.647  -7.500   0.000  1.00  0.00    -0.289 OA
BRANCH  16  17
HETATM   17  C   UNL     1       4.647  -6.000   0.000  1.00  0.00     0.387 C 
HETATM   18  O   UNL     1       5.946  -5.250   0.000  1.00  0.00    -0.162 OA
HETATM   19  N   UNL     1       3.348  -5.250   0.000  1.00  0.00    -0.217 NA
BRANCH  19  20
HETATM   20  C   UNL     1       3.608  -3.773   0.000  1.00  0.00     0.077 A 
HETATM   21  C   UNL     1       5.018  -3.260   0.000  1.00  0.00     0.047 A 
HETATM   22  C   UNL     1       5.279  -1.782   0.000  1.00  0.00     0.007 A 
HETATM   23  C   UNL     1       4.130  -0.818   0.000  1.00  0.00     0.007 A 
HETATM   24  C   UNL     1       2.720  -1.331   0.000  1.00  0.00     0.052 A 
HETATM   25  C   UNL     1       2.459  -2.809   0.000  1.00  0.00     0.085 A 
BRANCH  25  26
HETATM   26  O   UNL     1       1.050  -3.322   0.000  1.00  0.00    -0.331 OA
HETATM   27  C   UNL     1       0.789  -4.799   0.000  1.00  0.00     0.181 C 
ENDBRANCH  25  26
ENDBRANCH  19  20
ENDBRANCH  16  17
ENDBRANCH   4  16
TORSDOF 4
