REMARK  2 active torsions:
REMARK  status: ('A' for Active; 'I' for Inactive)
REMARK    1  A    between atoms: C_11  and  N_17 
REMARK    2  A    between atoms: C_12  and  N_17 
ROOT
HETATM    1 CL   UNL     1      -4.922 -10.024   0.000  1.00  0.00    -0.041 Cl
HETATM    2  N   UNL     1      -3.623  -7.774   0.000  1.00  0.00    -0.196 NA
HETATM    3  N   UNL     1      -2.324 -10.024   0.000  1.00  0.00    -0.196 NA
HETATM    4  N   UNL     1       0.402  -7.311   0.000  1.00  0.00    -0.321 N 
HETATM    5  N   UNL     1       0.402  -9.738   0.000  1.00  0.00    -0.226 NA
HETATM    6  C   UNL     1      -2.324  -7.024   0.000  1.00  0.00     0.183 A 
HETATM    7  C   UNL     1      -1.024  -7.774   0.000  1.00  0.00     0.130 A 
HETATM    8  C   UNL     1      -1.024  -9.274   0.000  1.00  0.00     0.181 A 
HETATM    9  C   UNL     1       1.284  -8.524   0.000  1.00  0.00     0.233 A 
HETATM   10  C   UNL     1      -3.623  -9.274   0.000  1.00  0.00     0.227 A 
HETATM   11  C   UNL     1       0.866  -5.884   0.000  1.00  0.00     0.128 C 
ENDROOT
BRANCH   6  12
HETATM   12  N   UNL     1      -2.324  -5.524   0.000  1.00  0.00    -0.230 NA
BRANCH  12  13
HETATM   13  C   UNL     1      -3.733  -5.011   0.000  1.00  0.00     0.053 A 
HETATM   14  C   UNL     1      -3.994  -3.534   0.000  1.00  0.00    -0.030 A 
HETATM   15  C   UNL     1      -5.403  -3.021   0.000  1.00  0.00     0.023 A 
HETATM   16  C   UNL     1      -2.845  -2.570   0.000  1.00  0.00     0.028 C 
HETATM   17  C   UNL     1      -6.552  -3.985   0.000  1.00  0.00     0.004 A 
HETATM   18  C   UNL     1      -6.292  -5.463   0.000  1.00  0.00     0.007 A 
HETATM   19  C   UNL     1      -7.962  -3.472   0.000  1.00  0.00     0.000 C 
HETATM   20  C   UNL     1      -4.882  -5.976   0.000  1.00  0.00     0.045 A 
ENDBRANCH  12  13
ENDBRANCH   6  12
TORSDOF 2
