REMARK  5 active torsions:
REMARK  status: ('A' for Active; 'I' for Inactive)
REMARK    1  A    between atoms: C_8  and  O_21 
REMARK    2  A    between atoms: C_9  and  O_22 
REMARK    3  A    between atoms: C_14  and  C_19 
REMARK    4  A    between atoms: C_19  and  O_21 
REMARK    5  A    between atoms: O_22  and  C_23 
ROOT
HETATM    1  C   UNL     1      -1.231  -9.632   0.000  1.00  0.00     0.060 A 
HETATM    2  C   UNL     1      -1.231  -8.132   0.000  1.00  0.00     0.126 A 
HETATM    3  C   UNL     1      -2.530 -10.382   0.000  1.00  0.00     0.127 A 
HETATM    4  C   UNL     1      -3.829  -9.632   0.000  1.00  0.00     0.030 A 
HETATM    5  C   UNL     1      -2.530  -7.382   0.000  1.00  0.00     0.030 A 
HETATM    6  C   UNL     1      -3.829  -8.132   0.000  1.00  0.00     0.005 A 
ENDROOT
BRANCH   3   7
HETATM    7  O   UNL     1      -2.530 -11.882   0.000  1.00  0.00    -0.298 OA
BRANCH   7   8
HETATM    8  C   UNL     1      -1.231 -12.632   0.000  1.00  0.00     0.289 A 
HETATM    9  O   UNL     1      -1.231 -14.132   0.000  1.00  0.00    -0.291 OA
HETATM   10  C   UNL     1       0.068 -14.882   0.000  1.00  0.00     0.176 A 
HETATM   11  C   UNL     1       1.367 -14.132   0.000  1.00  0.00    -0.001 A 
HETATM   12  C   UNL     1       1.367 -12.632   0.000  1.00  0.00     0.058 A 
HETATM   13  C   UNL     1       2.666 -14.882   0.000  1.00  0.00     0.026 A 
HETATM   14  C   UNL     1       2.666 -11.882   0.000  1.00  0.00     0.045 A 
HETATM   15  N   UNL     1       0.068 -11.882   0.000  1.00  0.00    -0.206 NA
HETATM   16  C   UNL     1       3.965 -12.632   0.000  1.00  0.00     0.007 A 
HETATM   17  C   UNL     1       3.965 -14.132   0.000  1.00  0.00     0.005 A 
ENDBRANCH   7   8
ENDBRANCH   3   7
BRANCH   2  18
HETATM   18  O   UNL     1       0.068  -7.382   0.000  1.00  0.00    -0.312 OA
BRANCH  18  19
HETATM   19  C   UNL     1       1.367  -8.132   0.000  1.00  0.00     0.220 C 
HETATM   20  O   UNL     1       1.367  -9.632   0.000  1.00  0.00    -0.164 OA
BRANCH  19  21
HETATM   21  C   UNL     1       2.666  -7.382   0.000  1.00  0.00     0.005 A 
HETATM   22  C   UNL     1       3.965  -8.132   0.000  1.00  0.00     0.026 A 
HETATM   23  C   UNL     1       5.264  -7.382   0.000  1.00  0.00     0.004 A 
HETATM   24  C   UNL     1       5.264  -5.882   0.000  1.00  0.00     0.001 A 
HETATM   25  C   UNL     1       3.965  -5.132   0.000  1.00  0.00     0.004 A 
HETATM   26  C   UNL     1       2.666  -5.882   0.000  1.00  0.00     0.026 A 
ENDBRANCH  19  21
ENDBRANCH  18  19
ENDBRANCH   2  18
TORSDOF 5
