REMARK  0 active torsions:
REMARK  status: ('A' for Active; 'I' for Inactive)
ROOT
HETATM    1  N   UNL     1      -3.348   5.250   0.000  1.00  0.00    -0.335 N 
HETATM    2  N   UNL     1      -3.348   8.250   0.000  1.00  0.00    -0.287 NA
HETATM    3  C   UNL     1      -3.348   3.750   0.000  1.00  0.00     0.031 A 
HETATM    4  C   UNL     1      -4.647   3.000   0.000  1.00  0.00     0.076 A 
HETATM    5  C   UNL     1      -2.049   3.000   0.000  1.00  0.00    -0.032 A 
HETATM    6  C   UNL     1      -2.049   1.500   0.000  1.00  0.00     0.026 A 
HETATM    7  C   UNL     1      -4.647   1.500   0.000  1.00  0.00     0.158 A 
HETATM    8  C   UNL     1      -3.348   0.750   0.000  1.00  0.00     0.038 A 
HETATM    9  C   UNL     1      -4.647   6.000   0.000  1.00  0.00     0.131 A 
HETATM   10  C   UNL     1      -4.647   7.500   0.000  1.00  0.00     0.145 A 
HETATM   11  C   UNL     1      -2.049   6.000   0.000  1.00  0.00     0.039 A 
HETATM   12  C   UNL     1      -2.049   7.500   0.000  1.00  0.00     0.159 A 
HETATM   13  O   UNL     1      -5.946   0.750   0.000  1.00  0.00    -0.223 OA
HETATM   14  C   UNL     1      -0.750   3.750   0.000  1.00  0.00     0.029 A 
HETATM   15  C   UNL     1      -0.750   5.250   0.000  1.00  0.00     0.046 A 
ENDROOT
TORSDOF 0
