REMARK  0 active torsions:
REMARK  status: ('A' for Active; 'I' for Inactive)
ROOT
HETATM    1 CL   UNL     1       0.750   1.991   0.000  1.00  0.00    -0.064 Cl
HETATM    2  N   UNL     1       3.348   1.991   0.000  1.00  0.00    -0.157 NA
HETATM    3  N   UNL     1       4.647   2.741   0.000  1.00  0.00    -0.219 N 
HETATM    4  N   UNL     1       6.684   0.907   0.000  1.00  0.00    -0.130 NA
HETATM    5  N   UNL     1       8.176   0.750   0.000  1.00  0.00    -0.155 NA
HETATM    6  C   UNL     1       8.447   3.334   0.000  1.00  0.00     0.069 A 
HETATM    7  C   UNL     1       9.057   1.964   0.000  1.00  0.00     0.063 A 
HETATM    8  C   UNL     1       6.955   3.491   0.000  1.00  0.00     0.005 A 
HETATM    9  C   UNL     1       6.074   4.704   0.000  1.00  0.00     0.067 A 
HETATM   10  C   UNL     1       4.647   4.241   0.000  1.00  0.00     0.045 A 
HETATM   11  C   UNL     1       3.348   4.991   0.000  1.00  0.00     0.049 A 
HETATM   12  C   UNL     1       2.049   4.241   0.000  1.00  0.00     0.066 A 
HETATM   13  C   UNL     1       6.074   2.277   0.000  1.00  0.00     0.177 A 
HETATM   14  C   UNL     1       2.049   2.741   0.000  1.00  0.00     0.136 A 
HETATM   15  C   UNL     1      10.549   1.807   0.000  1.00  0.00     0.050 C 
ENDROOT
TORSDOF 0
