REMARK  7 active torsions:
REMARK  status: ('A' for Active; 'I' for Inactive)
REMARK    1  A    between atoms: C_3  and  S_6 
REMARK    2  A    between atoms: C_4  and  C_11 
REMARK    3  A    between atoms: C_5  and  C_9 
REMARK    4  A    between atoms: C_9  and  O_13 
REMARK    5  A    between atoms: C_11  and  O_16 
REMARK    6  A    between atoms: O_13  and  C_14 
REMARK    7  A    between atoms: O_16  and  C_17 
ROOT
HETATM    1  N   UNL     1      -3.269  -7.207   0.000  1.00  0.00    -0.301 N 
HETATM    2  N   UNL     1      -5.683  -7.461   0.000  1.00  0.00    -0.217 NA
HETATM    3  C   UNL     1      -4.383  -8.211   0.000  1.00  0.00     0.172 A 
HETATM    4  C   UNL     1      -5.371  -5.994   0.000  1.00  0.00     0.152 A 
HETATM    5  C   UNL     1      -3.879  -5.837   0.000  1.00  0.00     0.133 A 
HETATM    6  C   UNL     1      -1.802  -7.519   0.000  1.00  0.00     0.133 C 
ENDROOT
BRANCH   4   7
HETATM    7  C   UNL     1      -6.374  -4.879   0.000  1.00  0.00     0.248 C 
HETATM    8  O   UNL     1      -5.911  -3.453   0.000  1.00  0.00    -0.162 OA
BRANCH   7   9
HETATM    9  O   UNL     1      -7.842  -5.191   0.000  1.00  0.00    -0.308 OA
BRANCH   9  10
HETATM   10  C   UNL     1      -8.305  -6.618   0.000  1.00  0.00     0.151 C 
HETATM   11  C   UNL     1      -9.772  -6.929   0.000  1.00  0.00     0.035 C 
ENDBRANCH   9  10
ENDBRANCH   7   9
ENDBRANCH   4   7
BRANCH   5  12
HETATM   12  C   UNL     1      -3.129  -4.538   0.000  1.00  0.00     0.246 C 
HETATM   13  O   UNL     1      -3.879  -3.239   0.000  1.00  0.00    -0.162 OA
BRANCH  12  14
HETATM   14  O   UNL     1      -1.629  -4.538   0.000  1.00  0.00    -0.308 OA
BRANCH  14  15
HETATM   15  C   UNL     1      -0.879  -3.239   0.000  1.00  0.00     0.151 C 
HETATM   16  C   UNL     1       0.621  -3.239   0.000  1.00  0.00     0.035 C 
ENDBRANCH  14  15
ENDBRANCH  12  14
ENDBRANCH   5  12
BRANCH   3  17
HETATM   17  S   UNL     1      -4.227  -9.703   0.000  1.00  0.00    -0.076 SA
HETATM   18  C   UNL     1      -5.440 -10.585   0.000  1.00  0.00     0.077 C 
ENDBRANCH   3  17
TORSDOF 7
