REMARK  1 active torsions:
REMARK  status: ('A' for Active; 'I' for Inactive)
REMARK    1  A    between atoms: C_9  and  C_12 
ROOT
HETATM    1  N   UNL     1      -7.736   0.619   0.000  1.00  0.00    -0.251 NA
HETATM    2  N   UNL     1      -7.736  -2.381   0.000  1.00  0.00    -0.266 NA
HETATM    3  N   UNL     1      -5.010   0.332   0.000  1.00  0.00    -0.327 N 
HETATM    4  C   UNL     1      -9.035  -0.131   0.000  1.00  0.00     0.153 A 
HETATM    5  C   UNL     1      -9.035  -1.631   0.000  1.00  0.00     0.152 A 
HETATM    6  C   UNL     1      -6.436  -0.131   0.000  1.00  0.00     0.153 A 
HETATM    7  C   UNL     1      -6.436  -1.631   0.000  1.00  0.00     0.106 A 
HETATM    8  C   UNL     1      -5.010  -2.095   0.000  1.00  0.00     0.031 A 
HETATM    9  C   UNL     1      -4.128  -0.881   0.000  1.00  0.00     0.130 A 
HETATM   10  C   UNL     1      -4.546   1.759   0.000  1.00  0.00     0.127 C 
ENDROOT
BRANCH   8  11
HETATM   11  C   UNL     1      -4.546  -3.521   0.000  1.00  0.00     0.208 C 
HETATM   12  O   UNL     1      -3.079  -3.833   0.000  1.00  0.00    -0.216 OA
ENDBRANCH   8  11
TORSDOF 1
