REMARK  3 active torsions:
REMARK  status: ('A' for Active; 'I' for Inactive)
REMARK    1  A    between atoms: C_2  and  N_12 
REMARK    2  A    between atoms: C_5  and  C_11 
REMARK    3  A    between atoms: C_11  and  N_12 
ROOT
HETATM    1  C   UNL     1       3.444   5.854   0.000  1.00  0.00     0.127 C 
ENDROOT
BRANCH   1   2
HETATM    2  C   UNL     1       2.145   5.104   0.000  1.00  0.00     0.023 A 
HETATM    3  C   UNL     1       0.846   5.854   0.000  1.00  0.00     0.002 A 
HETATM    4  C   UNL     1      -0.453   5.104   0.000  1.00  0.00     0.000 A 
HETATM    5  C   UNL     1       0.846   4.354   0.000  1.00  0.00     0.002 A 
HETATM    6  C   UNL     1      -0.453   3.604   0.000  1.00  0.00     0.000 A 
HETATM    7  C   UNL     1      -1.931   4.844   0.000  1.00  0.00     0.000 C 
HETATM    8  C   UNL     1      -0.966   6.514   0.000  1.00  0.00     0.000 C 
HETATM    9  C   UNL     1       0.846   2.854   0.000  1.00  0.00     0.000 A 
HETATM   10  C   UNL     1       2.145   3.604   0.000  1.00  0.00     0.002 A 
ENDBRANCH   1   2
BRANCH   1  11
HETATM   11  N   UNL     1       4.743   5.104   0.000  1.00  0.00    -0.254 NA
BRANCH  11  12
HETATM   12  C   UNL     1       6.042   5.854   0.000  1.00  0.00     0.175 A 
HETATM   13  N   UNL     1       6.042   7.354   0.000  1.00  0.00    -0.098 NA
HETATM   14  O   UNL     1       7.140   7.354   0.000  1.00  0.00    -0.116 OA
HETATM   15  S   UNL     1       8.640   7.354   0.000  1.00  0.00     0.347 S 
HETATM   16  S   UNL     1       8.640   5.854   0.000  1.00  0.00     0.017 SA
HETATM   17  O   UNL     1      10.140   7.354   0.000  1.00  0.00    -0.184 OA
HETATM   18  O   UNL     1       8.640   8.854   0.000  1.00  0.00    -0.184 OA
HETATM   19  C   UNL     1       7.341   5.104   0.000  1.00  0.00     0.143 A 
ENDBRANCH  11  12
ENDBRANCH   1  11
TORSDOF 3
