REMARK  3 active torsions:
REMARK  status: ('A' for Active; 'I' for Inactive)
REMARK    1  A    between atoms: C_2  and  C_3 
REMARK    2  A    between atoms: N_7  and  C_8 
REMARK    3  A    between atoms: C_8  and  C_9 
ROOT
HETATM    1  C   UNL     1      -3.650   0.375   0.000  1.00  0.00    -0.042 A 
HETATM    2  C   UNL     1      -4.399   1.674   0.000  1.00  0.00     0.094 A 
HETATM    3  C   UNL     1      -5.899   1.674   0.000  1.00  0.00     0.172 A 
HETATM    4  O   UNL     1      -6.649   2.973   0.000  1.00  0.00    -0.176 OA
HETATM    5  N   UNL     1      -6.649   0.375   0.000  1.00  0.00    -0.327 N 
HETATM    6  C   UNL     1      -5.899  -0.924   0.000  1.00  0.00     0.125 A 
HETATM    7  C   UNL     1      -4.399  -0.924   0.000  1.00  0.00    -0.029 A 
HETATM    8  C   UNL     1      -3.650  -2.223   0.000  1.00  0.00     0.028 C 
ENDROOT
BRANCH   5   9
HETATM    9  C   UNL     1      -8.149   0.375   0.000  1.00  0.00     0.103 C 
BRANCH   9  10
HETATM   10  C   UNL     1      -8.899   1.674   0.000  1.00  0.00     0.024 C 
HETATM   11  C   UNL     1     -10.399   1.674   0.000  1.00  0.00     0.002 C 
ENDBRANCH   9  10
ENDBRANCH   5   9
BRANCH   1  12
HETATM   12  C   UNL     1      -2.150   0.375   0.000  1.00  0.00     0.022 C 
HETATM   13  C   UNL     1      -1.399  -0.924   0.000  1.00  0.00     0.005 C 
ENDBRANCH   1  12
TORSDOF 3
