REMARK  5 active torsions:
REMARK  status: ('A' for Active; 'I' for Inactive)
REMARK    1  A    between atoms: N_1  and  N_17 
REMARK    2  A    between atoms: N_1  and  C_18 
REMARK    3  A    between atoms: C_4  and  C_18 
REMARK    4  A    between atoms: C_5  and  C_7 
REMARK    5  A    between atoms: C_15  and  N_17 
ROOT
HETATM    1  N   UNL     1       4.272  -4.399   0.000  1.00  0.00    -0.277 NA
HETATM    2  C   UNL     1       6.870  -4.399   0.000  1.00  0.00     0.064 A 
HETATM    3  C   UNL     1       5.571  -3.650   0.000  1.00  0.00     0.062 A 
HETATM    4  C   UNL     1       6.870  -5.899   0.000  1.00  0.00    -0.044 A 
HETATM    5  C   UNL     1       5.571  -6.649   0.000  1.00  0.00     0.048 A 
HETATM    6  C   UNL     1       4.272  -5.899   0.000  1.00  0.00     0.129 A 
ENDROOT
BRANCH   4   7
HETATM    7  C   UNL     1       8.169  -6.649   0.000  1.00  0.00    -0.050 A 
HETATM    8  C   UNL     1       8.169  -8.149   0.000  1.00  0.00     0.060 A 
HETATM    9  C   UNL     1       9.468  -8.899   0.000  1.00  0.00     0.306 A 
HETATM   10  C   UNL     1      10.767  -8.149   0.000  1.00  0.00     0.040 A 
HETATM   11  N   UNL     1       9.468 -10.399   0.000  1.00  0.00     0.616 N 
HETATM   12  C   UNL     1      10.767  -6.649   0.000  1.00  0.00     0.006 A 
HETATM   13  C   UNL     1       9.468  -5.899   0.000  1.00  0.00     0.021 A 
ENDBRANCH   4   7
BRANCH   3  14
HETATM   14  C   UNL     1       5.571  -2.150   0.000  1.00  0.00     0.190 C 
BRANCH  14  15
HETATM   15  N   UNL     1       4.272  -1.399   0.000  1.00  0.00    -0.167 NA
BRANCH  15  16
HETATM   16  N   UNL     1       4.272   0.101   0.000  1.00  0.00    -0.127 NA
BRANCH  16  17
HETATM   17  C   UNL     1       5.571   0.851   0.000  1.00  0.00     0.227 C 
HETATM   18  N   UNL     1       5.571   2.350   0.000  1.00  0.00    -0.066 NA
HETATM   19  S   UNL     1       6.870   0.101   0.000  1.00  0.00    -0.041 SA
ENDBRANCH  16  17
ENDBRANCH  15  16
ENDBRANCH  14  15
ENDBRANCH   3  14
TORSDOF 5
