REMARK  3 active torsions:
REMARK  status: ('A' for Active; 'I' for Inactive)
REMARK    1  A    between atoms: N_1  and  S_10 
REMARK    2  A    between atoms: C_2  and  N_13 
REMARK    3  A    between atoms: S_10  and  N_13 
ROOT
HETATM    1  N   UNL     1       4.647   1.299   0.000  1.00  0.00    -0.130 NA
ENDROOT
BRANCH   1   2
HETATM    2  C   UNL     1       5.946   2.049   0.000  1.00  0.00     0.148 A 
HETATM    3  C   UNL     1       5.946   3.549   0.000  1.00  0.00     0.066 A 
HETATM    4  C   UNL     1       7.245   4.299   0.000  1.00  0.00     0.010 A 
HETATM    5  C   UNL     1       8.544   3.549   0.000  1.00  0.00     0.027 A 
HETATM    6  C   UNL     1       8.544   2.049   0.000  1.00  0.00     0.127 A 
HETATM    7  N   UNL     1       7.245   1.299   0.000  1.00  0.00    -0.256 NA
ENDBRANCH   1   2
BRANCH   1   8
HETATM    8  S   UNL     1       3.348   2.049   0.000  1.00  0.00     0.345 S 
HETATM    9  O   UNL     1       2.598   0.750   0.000  1.00  0.00    -0.180 OA
HETATM   10  O   UNL     1       4.098   3.348   0.000  1.00  0.00    -0.180 OA
BRANCH   8  11
HETATM   11  N   UNL     1       2.049   2.799   0.000  1.00  0.00    -0.256 N 
HETATM   12  C   UNL     1       2.049   4.299   0.000  1.00  0.00     0.140 C 
HETATM   13  C   UNL     1       0.750   2.049   0.000  1.00  0.00     0.140 C 
ENDBRANCH   8  11
ENDBRANCH   1   8
TORSDOF 3
