REMARK  4 active torsions:
REMARK  status: ('A' for Active; 'I' for Inactive)
REMARK    1  A    between atoms: C_3  and  C_16 
REMARK    2  A    between atoms: C_7  and  N_13 
REMARK    3  A    between atoms: C_12  and  C_17 
REMARK    4  A    between atoms: C_16  and  C_17 
ROOT
HETATM    1  C   UNL     1       0.549   3.750   0.000  1.00  0.00     0.001 A 
HETATM    2  C   UNL     1       0.549   5.250   0.000  1.00  0.00     0.006 A 
HETATM    3  C   UNL     1       1.848   3.000   0.000  1.00  0.00     0.006 A 
HETATM    4  C   UNL     1       1.848   6.000   0.000  1.00  0.00     0.046 A 
HETATM    5  C   UNL     1       3.147   3.750   0.000  1.00  0.00     0.046 A 
HETATM    6  C   UNL     1       3.147   5.250   0.000  1.00  0.00     0.082 A 
ENDROOT
BRANCH   2   7
HETATM    7  C   UNL     1      -0.750   6.000   0.000  1.00  0.00     0.006 C 
BRANCH   7   8
HETATM    8  C   UNL     1      -0.750   7.500   0.000  1.00  0.00     0.041 C 
BRANCH   8   9
HETATM    9  C   UNL     1      -2.049   8.250   0.000  1.00  0.00     0.032 A 
HETATM   10  N   UNL     1      -3.348   7.500   0.000  1.00  0.00    -0.279 NA
HETATM   11  C   UNL     1      -4.647   8.250   0.000  1.00  0.00     0.125 A 
HETATM   12  C   UNL     1      -4.647   9.750   0.000  1.00  0.00     0.027 A 
HETATM   13  C   UNL     1      -3.348  10.500   0.000  1.00  0.00     0.008 A 
HETATM   14  C   UNL     1      -2.049   9.750   0.000  1.00  0.00     0.041 A 
ENDBRANCH   8   9
ENDBRANCH   7   8
ENDBRANCH   2   7
BRANCH   6  15
HETATM   15  N   UNL     1       4.446   6.000   0.000  1.00  0.00    -0.122 N 
HETATM   16  O   UNL     1       5.745   5.250   0.000  1.00  0.00    -0.532 OA
HETATM   17  O   UNL     1       4.446   7.500   0.000  1.00  0.00    -0.532 OA
ENDBRANCH   6  15
TORSDOF 4
