REMARK  17 active torsions:
REMARK  status: ('A' for Active; 'I' for Inactive)
REMARK    1  A    between atoms: C_1  and  C_2 
REMARK    2  A    between atoms: C_2  and  C_3 
REMARK    3  A    between atoms: C_3  and  C_5 
REMARK    4  A    between atoms: C_4  and  C_6 
REMARK    5  A    between atoms: C_4  and  C_13 
REMARK    6  A    between atoms: C_5  and  C_15 
REMARK    7  A    between atoms: C_6  and  C_16 
REMARK    8  A    between atoms: C_9  and  C_13 
REMARK    9  A    between atoms: C_15  and  C_17 
REMARK   10  A    between atoms: C_16  and  C_18 
REMARK   11  A    between atoms: C_17  and  C_19 
REMARK   12  A    between atoms: C_18  and  C_20 
REMARK   13  A    between atoms: C_19  and  C_21 
REMARK   14  A    between atoms: C_20  and  C_22 
REMARK   15  A    between atoms: C_27  and  C_28 
REMARK   16  A    between atoms: C_27  and  C_30 
REMARK   17  A    between atoms: C_27  and  C_32 
ROOT
HETATM    1  N   UNL     2       2.635 -17.042   0.000  1.00  0.00     0.622 N 
HETATM    2  C   UNL     2       4.135 -17.042   0.000  1.00  0.00     0.359 C 
ENDROOT
BRANCH   2   3
HETATM    3  C   UNL     2       4.135 -18.542   0.000  1.00  0.00     0.225 C 
HETATM    4  O   UNL     2       2.836 -19.292   0.000  1.00  0.00    -0.218 OA
ENDBRANCH   2   3
BRANCH   2   5
HETATM    5  C   UNL     2       4.135 -15.542   0.000  1.00  0.00     0.225 C 
HETATM    6  O   UNL     2       2.836 -14.792   0.000  1.00  0.00    -0.218 OA
ENDBRANCH   2   5
BRANCH   2   7
HETATM    7  C   UNL     2       5.635 -17.042   0.000  1.00  0.00     0.225 C 
HETATM    8  O   UNL     2       6.385 -15.743   0.000  1.00  0.00    -0.218 OA
ENDBRANCH   2   7
TORSDOF 17
