REMARK  3 active torsions:
REMARK  status: ('A' for Active; 'I' for Inactive)
REMARK    1  A    between atoms: C_2  and  C_6 
REMARK    2  A    between atoms: O_4  and  C_6 
REMARK    3  A    between atoms: O_4  and  C_10 
ROOT
HETATM    1  C   UNL     1       1.911   0.499   0.000  1.00  0.00     0.096 A 
HETATM    2  C   UNL     1       0.570  -0.173   0.000  1.00  0.00     0.085 A 
HETATM    3  C   UNL     1       0.795  -1.656   0.000  1.00  0.00     0.111 A 
HETATM    4  S   UNL     1       2.156   1.979   0.000  1.00  0.00    -0.071 SA
HETATM    5  S   UNL     1       2.965  -0.569   0.000  1.00  0.00    -0.038 SA
HETATM    6  S   UNL     1       2.275  -1.901   0.000  1.00  0.00    -0.035 SA
HETATM    7  N   UNL     1      -0.272  -2.710   0.000  1.00  0.00    -0.093 NA
ENDROOT
BRANCH   2   8
HETATM    8  C   UNL     1      -0.762   0.516   0.000  1.00  0.00     0.231 C 
HETATM    9  O   UNL     1      -0.830   2.015   0.000  1.00  0.00    -0.163 OA
BRANCH   8  10
HETATM   10  O   UNL     1      -2.025  -0.292   0.000  1.00  0.00    -0.309 OA
BRANCH  10  11
HETATM   11  C   UNL     1      -3.357   0.397   0.000  1.00  0.00     0.151 C 
HETATM   12  C   UNL     1      -3.426   1.896   0.000  1.00  0.00     0.035 C 
ENDBRANCH  10  11
ENDBRANCH   8  10
ENDBRANCH   2   8
TORSDOF 3
