REMARK  3 active torsions:
REMARK  status: ('A' for Active; 'I' for Inactive)
REMARK    1  A    between atoms: N_4  and  C_15 
REMARK    2  A    between atoms: C_13  and  N_18 
REMARK    3  A    between atoms: C_15  and  C_16 
REMARK       I    between atoms: C_16  and  N_18 
ROOT
HETATM    1  O   UNL     1      -4.172   3.275   0.000  1.00  0.00    -0.176 OA
HETATM    2  N   UNL     1      -1.574   3.275   0.000  1.00  0.00    -0.301 N 
HETATM    3  H   UNL     1      -1.574   1.774   0.000  1.00  0.00     0.171 HD
HETATM    4  N   UNL     1      -0.275   5.524   0.000  1.00  0.00    -0.306 N 
HETATM    5  O   UNL     1       1.024   3.275   0.000  1.00  0.00    -0.151 OA
HETATM    6  C   UNL     1      -1.574   6.274   0.000  1.00  0.00     0.114 A 
HETATM    7  C   UNL     1      -2.873   5.524   0.000  1.00  0.00     0.097 A 
HETATM    8  C   UNL     1      -2.873   4.024   0.000  1.00  0.00     0.172 A 
HETATM    9  C   UNL     1      -0.275   4.024   0.000  1.00  0.00     0.258 A 
ENDROOT
BRANCH   4  10
HETATM   10  C   UNL     1       1.024   6.274   0.000  1.00  0.00     0.180 C 
BRANCH  10  11
HETATM   11  C   UNL     1       1.024   7.774   0.000  1.00  0.00     0.214 C 
HETATM   12  O   UNL     1      -0.275   8.524   0.000  1.00  0.00    -0.172 OA
HETATM   13  N   UNL     1       2.324   8.524   0.000  1.00  0.00    -0.197 NA
BRANCH  13  14
HETATM   14  C   UNL     1       2.324  10.024   0.000  1.00  0.00     0.187 A 
HETATM   15  N   UNL     1       3.537  10.906   0.000  1.00  0.00    -0.247 NA
HETATM   16  C   UNL     1       3.074  12.333   0.000  1.00  0.00     0.140 A 
HETATM   17  C   UNL     1       1.574  12.333   0.000  1.00  0.00     0.091 A 
HETATM   18  S   UNL     1       1.110  10.906   0.000  1.00  0.00    -0.074 SA
ENDBRANCH  13  14
ENDBRANCH  10  11
ENDBRANCH   4  10
TORSDOF 3
