REMARK  9 active torsions:
REMARK  status: ('A' for Active; 'I' for Inactive)
REMARK    1  A    between atoms: C_6  and  C_24 
REMARK    2  A    between atoms: C_16  and  C_17 
REMARK    3  A    between atoms: C_17  and  C_18 
REMARK    4  A    between atoms: C_18  and  C_19 
REMARK    5  A    between atoms: C_19  and  C_20 
REMARK    6  A    between atoms: C_20  and  C_21 
REMARK    7  A    between atoms: C_21  and  C_22 
REMARK    8  A    between atoms: C_22  and  N_23 
REMARK    9  A    between atoms: N_23  and  C_24 
ROOT
HETATM    1  C   UNL     1       8.262 -15.213   0.000  1.00  0.00     0.004 C 
ENDROOT
BRANCH   1   2
HETATM    2  C   UNL     1       7.950 -13.746   0.000  1.00  0.00     0.024 C 
BRANCH   2   3
HETATM    3  C   UNL     1       9.065 -12.742   0.000  1.00  0.00    -0.010 A 
HETATM    4  C   UNL     1       8.753 -11.275   0.000  1.00  0.00     0.313 A 
HETATM    5  N   UNL     1       9.868 -10.271   0.000  1.00  0.00     0.348 N 
HETATM    6  C   UNL     1      11.192 -10.975   0.000  1.00  0.00     0.321 A 
HETATM    7  C   UNL     1      11.244 -12.475   0.000  1.00  0.00     0.060 A 
HETATM    8  C   UNL     1      12.488 -13.313   0.000  1.00  0.00     0.226 A 
HETATM    9  C   UNL     1      10.062 -13.398   0.000  1.00  0.00     0.004 A 
HETATM   10  O   UNL     1      12.075 -14.755   0.000  1.00  0.00    -0.304 OA
HETATM   11  O   UNL     1      13.898 -12.800   0.000  1.00  0.00    -0.164 OA
HETATM   12  C   UNL     1      10.575 -14.807   0.000  1.00  0.00     0.177 A 
ENDBRANCH   2   3
ENDBRANCH   1   2
BRANCH   1  13
HETATM   13  C   UNL     1       7.147 -16.217   0.000  1.00  0.00     0.000 C 
BRANCH  13  14
HETATM   14  C   UNL     1       7.459 -17.684   0.000  1.00  0.00     0.002 C 
BRANCH  14  15
HETATM   15  C   UNL     1       6.344 -18.688   0.000  1.00  0.00     0.026 C 
BRANCH  15  16
HETATM   16  C   UNL     1       4.918 -18.224   0.000  1.00  0.00     0.120 C 
BRANCH  16  17
HETATM   17  N   UNL     1       4.606 -16.757   0.000  1.00  0.00    -0.291 NA
BRANCH  17  18
HETATM   18  C   UNL     1       3.179 -16.293   0.000  1.00  0.00     0.146 C 
BRANCH  18  19
HETATM   19  C   UNL     1       2.867 -14.826   0.000  1.00  0.00     0.031 A 
HETATM   20  C   UNL     1       1.497 -14.216   0.000  1.00  0.00     0.222 A 
HETATM   21  O   UNL     1       0.198 -14.966   0.000  1.00  0.00    -0.164 OA
HETATM   22  O   UNL     1       1.654 -12.724   0.000  1.00  0.00    -0.309 OA
HETATM   23  C   UNL     1       3.121 -12.412   0.000  1.00  0.00     0.156 A 
HETATM   24  C   UNL     1       3.871 -13.711   0.000  1.00  0.00     0.061 A 
ENDBRANCH  18  19
ENDBRANCH  17  18
ENDBRANCH  16  17
ENDBRANCH  15  16
ENDBRANCH  14  15
ENDBRANCH  13  14
ENDBRANCH   1  13
TORSDOF 9
