REMARK  1 active torsions:
REMARK  status: ('A' for Active; 'I' for Inactive)
REMARK    1  A    between atoms: C_5  and  C_6 
ROOT
HETATM    1  C   UNL     1      -2.799  14.839   0.000  1.00  0.00     0.085 A 
HETATM    2  C   UNL     1       0.201  12.241   0.000  1.00  0.00     0.117 A 
HETATM    3  C   UNL     1      -2.049  13.540   0.000  1.00  0.00     0.084 A 
HETATM    4  C   UNL     1      -4.299  14.839   0.000  1.00  0.00     0.165 A 
HETATM    5  C   UNL     1      -0.549  10.942   0.000  1.00  0.00     0.146 A 
HETATM    6  C   UNL     1      -2.799  12.241   0.000  1.00  0.00     0.064 A 
HETATM    7  C   UNL     1      -5.049  13.540   0.000  1.00  0.00     0.088 A 
HETATM    8  C   UNL     1      -2.049  10.942   0.000  1.00  0.00     0.122 A 
HETATM    9  C   UNL     1      -4.299  12.241   0.000  1.00  0.00     0.115 A 
HETATM   10  C   UNL     1      -0.549   5.746   0.000  1.00  0.00     0.088 A 
HETATM   11  C   UNL     1      -2.049   5.746   0.000  1.00  0.00     0.196 A 
HETATM   12  C   UNL     1      -0.549   8.344   0.000  1.00  0.00     0.207 A 
HETATM   13  C   UNL     1      -2.799   7.045   0.000  1.00  0.00     0.078 A 
HETATM   14  C   UNL     1      -2.049   8.344   0.000  1.00  0.00     0.193 A 
HETATM   15  O   UNL     1      -2.799   9.643   0.000  1.00  0.00    -0.322 OA
HETATM   16  O   UNL     1      -0.549  13.540   0.000  1.00  0.00    -0.310 OA
HETATM   17  O   UNL     1       0.201   9.643   0.000  1.00  0.00    -0.283 OA
HETATM   18  O   UNL     1       0.201   7.045   0.000  1.00  0.00    -0.293 OA
HETATM   19  O   UNL     1      -5.049  16.138   0.000  1.00  0.00    -0.223 OA
HETATM   20  O   UNL     1      -5.049  10.942   0.000  1.00  0.00    -0.195 OA
HETATM   21  O   UNL     1      -1.299   7.045   0.000  1.00  0.00     0.000 OA
HETATM   22  O   UNL     1      -1.299   7.045   0.000  1.00  0.00     0.000 OA
HETATM   23  C   UNL     1       0.201   4.447   0.000  1.00  0.00     0.056 C 
HETATM   24  O   UNL     1      -2.799   4.447   0.000  1.00  0.00    -0.217 OA
ENDROOT
BRANCH   2  25
HETATM   25  C   UNL     1       1.701  12.241   0.000  1.00  0.00    -0.006 A 
HETATM   26  C   UNL     1       2.451  13.540   0.000  1.00  0.00     0.081 A 
HETATM   27  C   UNL     1       3.951  13.540   0.000  1.00  0.00     0.140 A 
HETATM   28  C   UNL     1       4.701  12.241   0.000  1.00  0.00     0.174 A 
HETATM   29  O   UNL     1       4.701  14.839   0.000  1.00  0.00    -0.192 OA
HETATM   30  C   UNL     1       3.951  10.942   0.000  1.00  0.00     0.140 A 
HETATM   31  O   UNL     1       6.201  12.241   0.000  1.00  0.00    -0.186 OA
HETATM   32  C   UNL     1       2.451  10.942   0.000  1.00  0.00     0.081 A 
HETATM   33  O   UNL     1       4.701   9.643   0.000  1.00  0.00    -0.192 OA
ENDBRANCH   2  25
TORSDOF 1
