REMARK  0 active torsions:
REMARK  status: ('A' for Active; 'I' for Inactive)
ROOT
HETATM    1  N   UNL     1      -6.124  -3.000   0.000  1.00  0.00    -0.251 NA
HETATM    2  C   UNL     1      -2.227  -0.750   0.000  1.00  0.00     0.005 A 
HETATM    3  C   UNL     1      -0.928  -1.500   0.000  1.00  0.00     0.005 A 
HETATM    4  C   UNL     1      -3.526  -1.500   0.000  1.00  0.00     0.027 A 
HETATM    5  C   UNL     1      -0.928  -3.000   0.000  1.00  0.00     0.022 A 
HETATM    6  C   UNL     1      -3.526  -3.000   0.000  1.00  0.00    -0.012 A 
HETATM    7  C   UNL     1      -2.227  -3.750   0.000  1.00  0.00    -0.042 A 
HETATM    8  C   UNL     1      -4.825  -3.750   0.000  1.00  0.00     0.074 A 
HETATM    9  C   UNL     1      -2.227  -5.250   0.000  1.00  0.00     0.057 A 
HETATM   10  C   UNL     1      -4.825  -5.250   0.000  1.00  0.00     0.021 A 
HETATM   11  C   UNL     1      -3.526  -6.000   0.000  1.00  0.00     0.109 A 
HETATM   12  C   UNL     1      -6.124  -6.000   0.000  1.00  0.00     0.053 A 
HETATM   13  C   UNL     1      -7.423  -5.250   0.000  1.00  0.00    -0.026 A 
HETATM   14  C   UNL     1      -8.722  -3.000   0.000  1.00  0.00     0.045 A 
HETATM   15  C   UNL     1     -10.021  -3.750   0.000  1.00  0.00     0.007 A 
HETATM   16  C   UNL     1      -7.423  -3.750   0.000  1.00  0.00     0.051 A 
HETATM   17  C   UNL     1     -10.021  -5.250   0.000  1.00  0.00     0.005 A 
HETATM   18  C   UNL     1      -8.722  -6.000   0.000  1.00  0.00     0.024 A 
HETATM   19  O   UNL     1      -3.526  -7.500   0.000  1.00  0.00    -0.195 OA
HETATM   20  C   UNL     1      -1.714  -6.660   0.000  1.00  0.00     0.011 C 
HETATM   21  C   UNL     1      -0.750  -4.989   0.000  1.00  0.00     0.011 C 
ENDROOT
TORSDOF 0
