REMARK  4 active torsions:
REMARK  status: ('A' for Active; 'I' for Inactive)
REMARK    1  A    between atoms: C_1  and  C_17 
REMARK    2  A    between atoms: C_2  and  C_4 
REMARK    3  A    between atoms: C_7  and  O_19 
REMARK    4  A    between atoms: C_10  and  C_13 
ROOT
HETATM    1  C   UNL     1      -5.471  -7.024   0.000  1.00  0.00    -0.031 A 
HETATM    2  C   UNL     1      -4.172  -7.774   0.000  1.00  0.00    -0.034 A 
HETATM    3  C   UNL     1      -6.770  -7.774   0.000  1.00  0.00    -0.024 A 
HETATM    4  C   UNL     1      -4.172  -9.274   0.000  1.00  0.00     0.030 A 
HETATM    5  C   UNL     1      -6.770  -9.274   0.000  1.00  0.00     0.038 A 
HETATM    6  C   UNL     1      -5.471 -10.024   0.000  1.00  0.00     0.037 A 
HETATM    7  C   UNL     1      -8.069  -7.024   0.000  1.00  0.00     0.031 C 
ENDROOT
BRANCH   2   8
HETATM    8  C   UNL     1      -2.873  -7.024   0.000  1.00  0.00    -0.048 A 
HETATM    9  C   UNL     1      -1.574  -7.774   0.000  1.00  0.00     0.024 A 
HETATM   10  C   UNL     1      -0.275  -7.024   0.000  1.00  0.00     0.034 A 
HETATM   11  C   UNL     1      -0.275  -5.524   0.000  1.00  0.00     0.116 A 
HETATM   12  C   UNL     1      -1.574  -4.774   0.000  1.00  0.00     0.034 A 
HETATM   13  C   UNL     1      -2.873  -5.524   0.000  1.00  0.00     0.024 A 
BRANCH  11  14
HETATM   14  O   UNL     1       1.024  -4.774   0.000  1.00  0.00    -0.354 OA
HETATM   15  C   UNL     1       1.024  -3.275   0.000  1.00  0.00     0.174 C 
ENDBRANCH  11  14
ENDBRANCH   2   8
BRANCH   1  16
HETATM   16  C   UNL     1      -5.471  -5.524   0.000  1.00  0.00     0.026 C 
HETATM   17  C   UNL     1      -6.770  -4.774   0.000  1.00  0.00     0.005 C 
ENDBRANCH   1  16
BRANCH   5  18
HETATM   18  C   UNL     1      -8.069 -10.024   0.000  1.00  0.00     0.206 C 
HETATM   19  O   UNL     1      -9.368  -9.274   0.000  1.00  0.00    -0.644 OA
HETATM   20  O   UNL     1      -8.069 -11.524   0.000  1.00  0.00    -0.644 OA
ENDBRANCH   5  18
TORSDOF 4
