REMARK  5 active torsions:
REMARK  status: ('A' for Active; 'I' for Inactive)
REMARK    1  A    between atoms: C_12  and  O_23 
REMARK    2  A    between atoms: C_20  and  O_31 
REMARK    3  A    between atoms: O_31  and  C_32 
REMARK    4  A    between atoms: C_32  and  C_34 
REMARK    5  A    between atoms: C_34  and  C_35 
ROOT
HETATM    1  N   UNL     1     -11.720  -5.719   0.000  1.00  0.00    -0.359 N 
HETATM    2  H   UNL     1     -11.257  -7.146   0.000  1.00  0.00     0.165 HD
HETATM    3  N   UNL     1      -8.736  -2.979   0.000  1.00  0.00    -0.373 N 
HETATM    4  C   UNL     1     -11.110  -1.922   0.000  1.00  0.00     0.051 A 
HETATM    5  C   UNL     1     -11.720  -3.292   0.000  1.00  0.00    -0.011 A 
HETATM    6  C   UNL     1      -9.618  -1.765   0.000  1.00  0.00     0.102 A 
HETATM    7  C   UNL     1     -10.838  -4.506   0.000  1.00  0.00     0.041 A 
HETATM    8  C   UNL     1     -13.147  -3.756   0.000  1.00  0.00    -0.013 A 
HETATM    9  C   UNL     1     -14.446  -3.006   0.000  1.00  0.00     0.030 A 
HETATM   10  C   UNL     1     -15.745  -3.756   0.000  1.00  0.00     0.035 A 
HETATM   11  C   UNL     1     -13.147  -5.256   0.000  1.00  0.00     0.032 A 
HETATM   12  C   UNL     1     -15.745  -5.256   0.000  1.00  0.00     0.122 A 
HETATM   13  C   UNL     1      -9.347  -4.349   0.000  1.00  0.00     0.142 A 
HETATM   14  C   UNL     1     -14.446  -6.006   0.000  1.00  0.00     0.073 A 
HETATM   15  C   UNL     1      -8.465  -5.563   0.000  1.00  0.00     0.017 A 
HETATM   16  C   UNL     1      -6.973  -5.406   0.000  1.00  0.00     0.045 A 
HETATM   17  C   UNL     1      -7.245  -2.822   0.000  1.00  0.00     0.091 A 
HETATM   18  C   UNL     1      -6.363  -4.035   0.000  1.00  0.00     0.046 A 
HETATM   19  C   UNL     1      -4.871  -3.879   0.000  1.00  0.00     0.047 A 
HETATM   20  C   UNL     1      -3.990  -5.092   0.000  1.00  0.00     0.074 A 
HETATM   21  C   UNL     1      -6.091  -6.619   0.000  1.00  0.00     0.022 A 
HETATM   22  C   UNL     1      -4.600  -6.462   0.000  1.00  0.00     0.019 A 
HETATM   23  C   UNL     1      -6.702  -7.989   0.000  1.00  0.00     0.224 A 
HETATM   24  O   UNL     1      -8.193  -8.146   0.000  1.00  0.00    -0.164 OA
HETATM   25  O   UNL     1      -5.820  -9.203   0.000  1.00  0.00    -0.306 OA
HETATM   26  C   UNL     1      -4.328  -9.046   0.000  1.00  0.00     0.184 A 
HETATM   27  O   UNL     1      -3.718  -7.676   0.000  1.00  0.00     0.000 OA
HETATM   28  C   UNL     1      -2.226  -7.519   0.000  1.00  0.00     0.000 C 
ENDROOT
BRANCH  20  29
HETATM   29  O   UNL     1      -2.498  -4.935   0.000  1.00  0.00    -0.308 OA
BRANCH  29  30
HETATM   30  C   UNL     1      -2.135  -3.480   0.000  1.00  0.00     0.276 C 
HETATM   31  O   UNL     1      -3.214  -2.438   0.000  1.00  0.00    -0.190 OA
BRANCH  30  32
HETATM   32  C   UNL     1      -0.693  -3.066   0.000  1.00  0.00     0.098 C 
BRANCH  32  33
HETATM   33  C   UNL     1       0.386  -4.108   0.000  1.00  0.00     0.157 C 
HETATM   34  O   UNL     1       1.828  -3.695   0.000  1.00  0.00    -0.223 OA
HETATM   35  C   UNL     1       0.023  -5.564   0.000  1.00  0.00     0.036 C 
ENDBRANCH  32  33
ENDBRANCH  30  32
ENDBRANCH  29  30
ENDBRANCH  20  29
BRANCH  12  36
HETATM   36  O   UNL     1     -17.044  -6.006   0.000  1.00  0.00    -0.354 OA
HETATM   37  C   UNL     1     -18.343  -5.256   0.000  1.00  0.00     0.174 C 
ENDBRANCH  12  36
TORSDOF 5
