REMARK  0 active torsions:
REMARK  status: ('A' for Active; 'I' for Inactive)
ROOT
HETATM    1  O   UNL     1       4.750 -14.412   0.000  1.00  0.00    -0.171 OA
HETATM    2  N   UNL     1       6.989 -14.257   0.000  1.00  0.00    -0.336 N 
HETATM    3  H   UNL     1       6.220 -15.545   0.000  1.00  0.00     0.168 HD
HETATM    4  O   UNL     1      14.102 -18.353   0.000  1.00  0.00    -0.191 OA
HETATM    5  O   UNL     1      15.337 -11.591   0.000  1.00  0.00    -0.324 OA
HETATM    6  O   UNL     1      16.657 -13.829   0.000  1.00  0.00    -0.302 OA
HETATM    7  C   UNL     1       8.825  -2.672   0.000  1.00  0.00     0.077 A 
HETATM    8  C   UNL     1      10.316  -2.515   0.000  1.00  0.00     0.130 A 
HETATM    9  C   UNL     1      16.124  -6.569   0.000  1.00  0.00     0.084 A 
HETATM   10  C   UNL     1      14.045 -12.354   0.000  1.00  0.00     0.153 A 
HETATM   11  C   UNL     1      15.204  -5.394   0.000  1.00  0.00    -0.150 A 
HETATM   12  C   UNL     1      14.431  -4.117   0.000  1.00  0.00     0.087 A 
HETATM   13  C   UNL     1      13.201  -3.259   0.000  1.00  0.00     0.183 A 
HETATM   14  C   UNL     1      11.803  -2.715   0.000  1.00  0.00     0.012 A 
HETATM   15  C   UNL     1       7.412  -3.176   0.000  1.00  0.00     0.133 A 
HETATM   16  C   UNL     1      14.059 -13.854   0.000  1.00  0.00     0.028 A 
HETATM   17  C   UNL     1       6.158  -3.999   0.000  1.00  0.00     0.029 A 
HETATM   18  C   UNL     1       5.133  -5.094   0.000  1.00  0.00     0.132 A 
HETATM   19  C   UNL     1      15.365 -14.591   0.000  1.00  0.00     0.093 A 
HETATM   20  C   UNL     1      12.767 -14.616   0.000  1.00  0.00    -0.002 A 
HETATM   21  C   UNL     1      11.332 -15.052   0.000  1.00  0.00    -0.003 A 
HETATM   22  C   UNL     1       9.835 -15.137   0.000  1.00  0.00    -0.004 A 
HETATM   23  C   UNL     1       4.395  -6.400   0.000  1.00  0.00     0.034 A 
HETATM   24  C   UNL     1      15.379 -16.091   0.000  1.00  0.00     0.025 A 
HETATM   25  C   UNL     1      12.781 -16.116   0.000  1.00  0.00     0.009 A 
HETATM   26  C   UNL     1       8.359 -14.867   0.000  1.00  0.00     0.036 A 
HETATM   27  C   UNL     1       3.986  -7.843   0.000  1.00  0.00    -0.117 A 
HETATM   28  C   UNL     1      14.088 -16.853   0.000  1.00  0.00     0.125 A 
HETATM   29  C   UNL     1      11.496 -16.890   0.000  1.00  0.00     0.072 A 
HETATM   30  C   UNL     1       3.929  -9.342   0.000  1.00  0.00     0.135 A 
HETATM   31  C   UNL     1       5.801 -13.341   0.000  1.00  0.00     0.194 A 
HETATM   32  C   UNL     1       4.863 -12.171   0.000  1.00  0.00     0.051 A 
HETATM   33  C   UNL     1       4.480 -10.729   0.000  1.00  0.00    -0.115 A 
HETATM   34  C   UNL     1      16.643 -12.329   0.000  1.00  0.00     0.299 A 
HETATM   35  O   UNL     1       3.924  -4.207   0.000  1.00  0.00    -0.190 OA
HETATM   36  C   UNL     1       5.192  -2.851   0.000  1.00  0.00     0.035 C 
HETATM   37  C   UNL     1       3.011  -5.823   0.000  1.00  0.00     0.041 C 
HETATM   38  O   UNL     1       6.744  -1.833   0.000  1.00  0.00    -0.190 OA
HETATM   39  C   UNL     1       6.726   0.697   0.000  1.00  0.00     0.000 C 
HETATM   40  O   UNL     1       7.059  -0.766   0.000  1.00  0.00     0.000 OA
HETATM   41  C   UNL     1       8.492  -1.209   0.000  1.00  0.00     0.160 A 
HETATM   42  O   UNL     1       9.592  -0.190   0.000  1.00  0.00    -0.188 OA
HETATM   43  O   UNL     1      10.338  -1.015   0.000  1.00  0.00    -0.191 OA
HETATM   44  C   UNL     1       3.589 -12.964   0.000  1.00  0.00     0.043 C 
HETATM   45  C   UNL     1      12.178  -1.262   0.000  1.00  0.00     0.031 C 
HETATM   46  O   UNL     1      13.907  -1.936   0.000  1.00  0.00    -0.218 OA
HETATM   47  O   UNL     1      14.677  -2.638   0.000  1.00  0.00     0.000 OA
HETATM   48  C   UNL     1      15.873  -3.704   0.000  1.00  0.00     0.016 A 
HETATM   49  O   UNL     1      11.474 -18.389   0.000  1.00  0.00     0.000 OA
HETATM   50  C   UNL     1       9.742 -16.635   0.000  1.00  0.00     0.077 A 
HETATM   51  C   UNL     1      17.620  -6.463   0.000  1.00  0.00     0.016 C 
HETATM   52  O   UNL     1      11.595 -16.529   0.000  1.00  0.00     0.000 OA
HETATM   53  C   UNL     1      10.447 -17.495   0.000  1.00  0.00     0.178 A 
HETATM   54  O   UNL     1      10.710 -18.971   0.000  1.00  0.00    -0.218 OA
HETATM   55  C   UNL     1       9.037 -16.984   0.000  1.00  0.00    -0.012 A 
HETATM   56  C   UNL     1      16.686 -16.829   0.000  1.00  0.00     0.035 C 
ENDROOT
TORSDOF 0
