REMARK  1 active torsions:
REMARK  status: ('A' for Active; 'I' for Inactive)
REMARK    1  A    between atoms: C_5  and  C_7 
ROOT
HETATM    1  C   UNL     1      -0.924   7.399   0.000  1.00  0.00    -0.035 A 
HETATM    2  C   UNL     1       0.375   6.649   0.000  1.00  0.00     0.015 A 
HETATM    3  C   UNL     1      -2.223   6.649   0.000  1.00  0.00     0.043 A 
HETATM    4  C   UNL     1       0.375   5.149   0.000  1.00  0.00     0.034 A 
HETATM    5  C   UNL     1      -2.223   5.149   0.000  1.00  0.00    -0.048 A 
HETATM    6  C   UNL     1      -0.924   4.399   0.000  1.00  0.00     0.026 A 
HETATM    7  C   UNL     1       1.674   7.399   0.000  1.00  0.00     0.208 A 
HETATM    8  O   UNL     1       2.973   6.649   0.000  1.00  0.00    -0.170 OA
HETATM    9  N   UNL     1       1.674   8.899   0.000  1.00  0.00    -0.229 NA
HETATM   10  C   UNL     1       0.375   9.649   0.000  1.00  0.00     0.043 A 
HETATM   11  C   UNL     1      -0.924   8.899   0.000  1.00  0.00     0.064 A 
HETATM   12  C   UNL     1       0.375  11.149   0.000  1.00  0.00     0.048 C 
ENDROOT
BRANCH   5  13
HETATM   13  C   UNL     1      -3.522   4.399   0.000  1.00  0.00    -0.051 C 
HETATM   14  C   UNL     1      -4.821   5.149   0.000  1.00  0.00     0.026 C 
HETATM   15  C   UNL     1      -3.522   2.900   0.000  1.00  0.00     0.026 C 
ENDBRANCH   5  13
TORSDOF 1
