REMARK  3 active torsions:
REMARK  status: ('A' for Active; 'I' for Inactive)
REMARK    1  A    between atoms: N_2  and  C_7 
REMARK    2  A    between atoms: C_7  and  C_8 
REMARK    3  A    between atoms: C_8  and  C_9 
ROOT
HETATM    1  N   UNL     1       1.913   0.607   0.000  1.00  0.00    -0.257 NA
HETATM    2  N   UNL     1       3.876   2.033   0.000  1.00  0.00    -0.335 N 
HETATM    3  C   UNL     1       2.663   2.915   0.000  1.00  0.00     0.129 A 
HETATM    4  C   UNL     1       1.449   2.033   0.000  1.00  0.00     0.151 A 
HETATM    5  C   UNL     1       3.413   0.607   0.000  1.00  0.00     0.112 A 
HETATM    6  C   UNL     1       4.295  -0.607   0.000  1.00  0.00     0.071 C 
ENDROOT
BRANCH   2   7
HETATM    7  C   UNL     1       5.303   2.497   0.000  1.00  0.00     0.103 C 
BRANCH   7   8
HETATM    8  C   UNL     1       6.418   1.493   0.000  1.00  0.00     0.024 C 
BRANCH   8   9
HETATM    9  C   UNL     1       7.844   1.957   0.000  1.00  0.00     0.002 C 
HETATM   10  C   UNL     1       8.959   0.953   0.000  1.00  0.00     0.000 C 
ENDBRANCH   8   9
ENDBRANCH   7   8
ENDBRANCH   2   7
TORSDOF 3
