REMARK  8 active torsions:
REMARK  status: ('A' for Active; 'I' for Inactive)
REMARK    1  A    between atoms: C_4  and  C_27 
REMARK    2  A    between atoms: C_7  and  N_29 
REMARK    3  A    between atoms: C_10  and  N_23 
REMARK    4  A    between atoms: C_12  and  C_21 
REMARK    5  A    between atoms: C_14  and  N_23 
REMARK    6  A    between atoms: C_17  and  C_27 
REMARK    7  A    between atoms: C_18  and  O_20 
REMARK    8  A    between atoms: O_20  and  C_21 
ROOT
HETATM    1  S   UNL     1      10.472   0.825   0.000  1.00  0.00    -0.064 SA
HETATM    2  C   UNL     1       9.469  -0.289   0.000  1.00  0.00     0.120 A 
HETATM    3  C   UNL     1      10.219  -1.589   0.000  1.00  0.00     0.092 A 
HETATM    4  C   UNL     1      11.686  -1.277   0.000  1.00  0.00     0.089 A 
HETATM    5  C   UNL     1      11.843   0.215   0.000  1.00  0.00     0.069 A 
HETATM    6  C   UNL     1       9.608  -2.959   0.000  1.00  0.00     0.025 C 
HETATM    7  N   UNL     1       8.998  -4.329   0.000  1.00  0.00    -0.096 N 
HETATM    8  N   UNL     1      12.800  -2.280   0.000  1.00  0.00    -0.099 NA
ENDROOT
BRANCH   2   9
HETATM    9  N   UNL     1       7.977  -0.133   0.000  1.00  0.00    -0.247 NA
BRANCH   9  10
HETATM   10  C   UNL     1       7.367   1.238   0.000  1.00  0.00     0.038 A 
HETATM   11  C   UNL     1       8.248   2.451   0.000  1.00  0.00     0.046 A 
HETATM   12  C   UNL     1       7.638   3.821   0.000  1.00  0.00     0.032 A 
HETATM   13  C   UNL     1       6.146   3.978   0.000  1.00  0.00     0.005 A 
HETATM   14  C   UNL     1       5.265   2.765   0.000  1.00  0.00     0.032 A 
HETATM   15  C   UNL     1       5.875   1.394   0.000  1.00  0.00     0.046 A 
BRANCH  13  16
HETATM   16  C   UNL     1       5.536   5.349   0.000  1.00  0.00     0.220 C 
HETATM   17  O   UNL     1       4.045   5.505   0.000  1.00  0.00    -0.164 OA
BRANCH  16  18
HETATM   18  O   UNL     1       6.418   6.562   0.000  1.00  0.00    -0.309 OA
BRANCH  18  19
HETATM   19  C   UNL     1       5.808   7.932   0.000  1.00  0.00     0.151 C 
HETATM   20  C   UNL     1       6.689   9.146   0.000  1.00  0.00     0.035 C 
ENDBRANCH  18  19
ENDBRANCH  16  18
ENDBRANCH  13  16
ENDBRANCH   9  10
ENDBRANCH   2   9
BRANCH   5  21
HETATM   21  C   UNL     1      13.142   0.965   0.000  1.00  0.00     0.130 C 
HETATM   22  O   UNL     1      13.142   2.465   0.000  1.00  0.00    -0.190 OA
BRANCH  21  23
HETATM   23  C   UNL     1      14.441   0.215   0.000  1.00  0.00    -0.013 A 
HETATM   24  C   UNL     1      15.740   0.965   0.000  1.00  0.00     0.025 A 
HETATM   25  C   UNL     1      17.039   0.215   0.000  1.00  0.00     0.011 A 
HETATM   26  C   UNL     1      17.039  -1.285   0.000  1.00  0.00     0.046 A 
HETATM   27  C   UNL     1      15.740  -2.035   0.000  1.00  0.00     0.086 A 
HETATM   28  C   UNL     1      14.441  -1.285   0.000  1.00  0.00     0.070 A 
BRANCH  27  29
HETATM   29  N   UNL     1      15.740  -3.535   0.000  1.00  0.00    -0.122 N 
HETATM   30  O   UNL     1      14.441  -4.285   0.000  1.00  0.00    -0.532 OA
HETATM   31  O   UNL     1      17.039  -4.285   0.000  1.00  0.00    -0.532 OA
ENDBRANCH  27  29
ENDBRANCH  21  23
ENDBRANCH   5  21
TORSDOF 8
