REMARK  5 active torsions:
REMARK  status: ('A' for Active; 'I' for Inactive)
REMARK    1  A    between atoms: C_3  and  N_18 
REMARK    2  A    between atoms: C_8  and  N_15 
REMARK    3  A    between atoms: C_12  and  O_13 
REMARK    4  A    between atoms: N_15  and  C_16 
REMARK    5  A    between atoms: C_16  and  N_18 
ROOT
HETATM    1  C   UNL     1      -2.049   7.500   0.000  1.00  0.00     0.220 C 
HETATM    2  S   UNL     1      -0.750   8.250   0.000  1.00  0.00    -0.037 SA
ENDROOT
BRANCH   1   3
HETATM    3  N   UNL     1      -2.049   6.000   0.000  1.00  0.00    -0.226 NA
BRANCH   3   4
HETATM    4  C   UNL     1      -3.348   5.250   0.000  1.00  0.00     0.042 A 
HETATM    5  C   UNL     1      -4.647   6.000   0.000  1.00  0.00     0.042 A 
HETATM    6  C   UNL     1      -5.946   5.250   0.000  1.00  0.00     0.009 A 
HETATM    7  C   UNL     1      -5.946   3.750   0.000  1.00  0.00     0.030 A 
HETATM    8  C   UNL     1      -4.647   3.000   0.000  1.00  0.00     0.121 A 
HETATM    9  C   UNL     1      -3.348   3.750   0.000  1.00  0.00     0.071 A 
BRANCH   8  10
HETATM   10  O   UNL     1      -4.647   1.500   0.000  1.00  0.00    -0.354 OA
HETATM   11  C   UNL     1      -5.946   0.750   0.000  1.00  0.00     0.174 C 
ENDBRANCH   8  10
ENDBRANCH   3   4
ENDBRANCH   1   3
BRANCH   1  12
HETATM   12  N   UNL     1      -3.348   8.250   0.000  1.00  0.00    -0.226 NA
BRANCH  12  13
HETATM   13  C   UNL     1      -3.348   9.750   0.000  1.00  0.00     0.039 A 
HETATM   14  C   UNL     1      -4.647  10.500   0.000  1.00  0.00     0.044 A 
HETATM   15  C   UNL     1      -4.647  12.000   0.000  1.00  0.00     0.039 A 
HETATM   16  C   UNL     1      -3.348  12.750   0.000  1.00  0.00     0.153 A 
HETATM   17  C   UNL     1      -2.049  12.000   0.000  1.00  0.00     0.039 A 
HETATM   18  O   UNL     1      -3.348  14.250   0.000  1.00  0.00    -0.223 OA
HETATM   19  C   UNL     1      -2.049  10.500   0.000  1.00  0.00     0.044 A 
ENDBRANCH  12  13
ENDBRANCH   1  12
TORSDOF 5
