REMARK  0 active torsions:
REMARK  status: ('A' for Active; 'I' for Inactive)
ROOT
HETATM    1  O   UNL     1       4.912   0.104   0.000  1.00  0.00    -0.220 OA
HETATM    2  S   UNL     1       7.757  -2.536   0.000  1.00  0.00    -0.097 SA
HETATM    3  N   UNL     1       6.543  -4.917   0.000  1.00  0.00    -0.269 NA
HETATM    4 CL   UNL     1       3.946  -3.417   0.000  1.00  0.00    -0.188 Cl
HETATM    5  C   UNL     1       5.245  -7.167   0.000  1.00  0.00     0.026 A 
HETATM    6  C   UNL     1       3.946  -7.917   0.000  1.00  0.00     0.002 A 
HETATM    7  C   UNL     1       5.245  -5.667   0.000  1.00  0.00     0.119 A 
HETATM    8  C   UNL     1       2.646  -7.167   0.000  1.00  0.00     0.005 A 
HETATM    9  C   UNL     1       3.946  -4.917   0.000  1.00  0.00     0.105 A 
HETATM   10  C   UNL     1       2.646  -5.667   0.000  1.00  0.00     0.037 A 
HETATM   11  C   UNL     1       6.543  -3.417   0.000  1.00  0.00     0.087 A 
HETATM   12  C   UNL     1       5.330  -2.536   0.000  1.00  0.00     0.139 A 
HETATM   13  C   UNL     1       5.793  -1.109   0.000  1.00  0.00     0.175 A 
HETATM   14  C   UNL     1       7.293  -1.109   0.000  1.00  0.00     0.097 A 
HETATM   15  C   UNL     1       3.960  -1.926   0.000  1.00  0.00     0.279 A 
HETATM   16  O   UNL     1       3.803  -0.434   0.000  1.00  0.00    -0.192 OA
HETATM   17  O   UNL     1       2.746  -2.807   0.000  1.00  0.00    -0.327 OA
HETATM   18  C   UNL     1       2.903  -4.299   0.000  1.00  0.00     0.137 A 
HETATM   19  C   UNL     1       1.689  -5.181   0.000  1.00  0.00    -0.022 A 
HETATM   20  C   UNL     1       4.580  -3.835   0.000  1.00  0.00     0.108 A 
HETATM   21  N   UNL     1       3.830  -5.134   0.000  1.00  0.00     0.000 N 
ENDROOT
TORSDOF 0
