REMARK  5 active torsions:
REMARK  status: ('A' for Active; 'I' for Inactive)
REMARK    1  A    between atoms: C_10  and  C_17 
REMARK    2  A    between atoms: C_12  and  C_21 
REMARK    3  A    between atoms: C_14  and  N_22 
REMARK       I    between atoms: C_17  and  N_19 
REMARK    4  A    between atoms: N_19  and  N_20 
REMARK    5  A    between atoms: N_20  and  C_21 
ROOT
HETATM    1  C   UNL     1     -10.118   3.475   0.000  1.00  0.00     0.226 C 
HETATM    2  O   UNL     1      -8.819   4.226   0.000  1.00  0.00    -0.168 OA
HETATM    3  N   UNL     1     -10.118   1.976   0.000  1.00  0.00    -0.126 NA
ENDROOT
BRANCH   1   4
HETATM    4  C   UNL     1     -11.417   4.226   0.000  1.00  0.00     0.029 A 
HETATM    5  C   UNL     1     -12.716   3.475   0.000  1.00  0.00     0.051 A 
HETATM    6  C   UNL     1     -14.015   4.226   0.000  1.00  0.00    -0.027 A 
HETATM    7  C   UNL     1     -14.015   5.726   0.000  1.00  0.00     0.046 A 
HETATM    8  C   UNL     1     -15.314   3.475   0.000  1.00  0.00     0.024 A 
HETATM    9  N   UNL     1     -12.716   6.476   0.000  1.00  0.00    -0.271 NA
HETATM   10  C   UNL     1     -15.314   6.476   0.000  1.00  0.00     0.045 A 
HETATM   11  C   UNL     1     -11.417   5.726   0.000  1.00  0.00     0.151 A 
HETATM   12  C   UNL     1     -16.613   5.726   0.000  1.00  0.00     0.007 A 
HETATM   13  C   UNL     1     -16.613   4.226   0.000  1.00  0.00     0.005 A 
ENDBRANCH   1   4
BRANCH   3  14
HETATM   14  N   UNL     1      -8.819   1.226   0.000  1.00  0.00    -0.173 NA
BRANCH  14  15
HETATM   15  C   UNL     1      -7.520   1.976   0.000  1.00  0.00     0.149 C 
BRANCH  15  16
HETATM   16  C   UNL     1      -6.221   1.226   0.000  1.00  0.00     0.027 A 
HETATM   17  C   UNL     1      -4.922   1.976   0.000  1.00  0.00     0.008 A 
HETATM   18  C   UNL     1      -3.623   1.226   0.000  1.00  0.00     0.039 A 
HETATM   19  C   UNL     1      -3.623  -0.275   0.000  1.00  0.00     0.010 A 
HETATM   20  C   UNL     1      -4.922  -1.024   0.000  1.00  0.00     0.039 A 
HETATM   21  C   UNL     1      -6.221  -0.275   0.000  1.00  0.00     0.008 A 
BRANCH  19  22
HETATM   22  N   UNL     1      -2.324  -1.024   0.000  1.00  0.00    -0.351 N 
HETATM   23  C   UNL     1      -1.024  -0.275   0.000  1.00  0.00     0.125 C 
HETATM   24  C   UNL     1      -2.324  -2.525   0.000  1.00  0.00     0.125 C 
ENDBRANCH  19  22
ENDBRANCH  15  16
ENDBRANCH  14  15
ENDBRANCH   3  14
TORSDOF 5
