REMARK  4 active torsions:
REMARK  status: ('A' for Active; 'I' for Inactive)
REMARK    1  A    between atoms: C_5  and  C_8 
REMARK    2  A    between atoms: C_12  and  C_23 
REMARK    3  A    between atoms: C_17  and  C_21 
REMARK       I    between atoms: C_21  and  N_25 
REMARK    4  A    between atoms: C_23  and  N_25 
ROOT
HETATM    1  C   UNL     1      -8.544  -2.250   0.000  1.00  0.00     0.054 C 
HETATM    2  C   UNL     1      -8.544  -0.750   0.000  1.00  0.00     0.051 C 
ENDROOT
BRANCH   1   3
HETATM    3  C   UNL     1      -7.245  -3.000   0.000  1.00  0.00    -0.030 A 
HETATM    4  C   UNL     1      -5.946  -2.250   0.000  1.00  0.00     0.028 A 
HETATM    5  C   UNL     1      -4.647  -3.000   0.000  1.00  0.00     0.026 A 
HETATM    6  C   UNL     1      -4.647  -4.500   0.000  1.00  0.00    -0.051 A 
HETATM    7  C   UNL     1      -5.946  -5.250   0.000  1.00  0.00     0.026 A 
HETATM    8  C   UNL     1      -7.245  -4.500   0.000  1.00  0.00     0.028 A 
BRANCH   6   9
HETATM    9  C   UNL     1      -3.348  -5.250   0.000  1.00  0.00    -0.052 A 
HETATM   10  C   UNL     1      -2.049  -4.500   0.000  1.00  0.00     0.021 A 
HETATM   11  C   UNL     1      -0.750  -5.250   0.000  1.00  0.00     0.004 A 
HETATM   12  C   UNL     1      -0.750  -6.750   0.000  1.00  0.00     0.001 A 
HETATM   13  C   UNL     1      -2.049  -7.500   0.000  1.00  0.00     0.004 A 
HETATM   14  C   UNL     1      -3.348  -6.750   0.000  1.00  0.00     0.021 A 
ENDBRANCH   6   9
ENDBRANCH   1   3
BRANCH   1  15
HETATM   15  N   UNL     1      -9.843  -3.000   0.000  1.00  0.00    -0.226 NA
HETATM   16  C   UNL     1     -11.142  -2.250   0.000  1.00  0.00     0.205 C 
HETATM   17  O   UNL     1     -11.142  -0.750   0.000  1.00  0.00    -0.170 OA
BRANCH  16  18
HETATM   18  C   UNL     1     -12.441  -3.000   0.000  1.00  0.00     0.005 A 
HETATM   19  C   UNL     1     -13.740  -2.250   0.000  1.00  0.00     0.064 A 
HETATM   20  C   UNL     1     -15.039  -3.000   0.000  1.00  0.00     0.046 A 
HETATM   21 CL   UNL     1     -16.338  -2.250   0.000  1.00  0.00    -0.086 Cl
HETATM   22  C   UNL     1     -15.039  -4.500   0.000  1.00  0.00     0.043 A 
HETATM   23 CL   UNL     1     -16.338  -5.250   0.000  1.00  0.00    -0.086 Cl
HETATM   24  C   UNL     1     -13.740  -5.250   0.000  1.00  0.00     0.043 A 
HETATM   25  C   UNL     1     -12.441  -4.500   0.000  1.00  0.00     0.032 A 
ENDBRANCH  16  18
ENDBRANCH   1  15
TORSDOF 4
