REMARK  0 active torsions:
REMARK  status: ('A' for Active; 'I' for Inactive)
ROOT
HETATM    1  C   UNL     1       1.500   4.647   0.000  1.00  0.00     0.029 A 
HETATM    2  C   UNL     1       0.750   5.946   0.000  1.00  0.00     0.003 A 
HETATM    3  C   UNL     1      -3.000   7.245   0.000  1.00  0.00     0.149 A 
HETATM    4  C   UNL     1      -3.000   4.647   0.000  1.00  0.00     0.089 A 
HETATM    5  C   UNL     1      -3.750   3.348   0.000  1.00  0.00    -0.008 A 
HETATM    6  C   UNL     1      -5.250   3.348   0.000  1.00  0.00     0.028 A 
HETATM    7  C   UNL     1       3.000   4.647   0.000  1.00  0.00     0.005 A 
HETATM    8  C   UNL     1       1.500   7.245   0.000  1.00  0.00    -0.043 A 
HETATM    9  C   UNL     1      -3.000   2.049   0.000  1.00  0.00    -0.044 A 
HETATM   10  C   UNL     1      -6.000   2.049   0.000  1.00  0.00     0.005 A 
HETATM   11  C   UNL     1       3.750   5.946   0.000  1.00  0.00     0.005 A 
HETATM   12  C   UNL     1       3.000   7.245   0.000  1.00  0.00     0.022 A 
HETATM   13  C   UNL     1      -0.750   5.946   0.000  1.00  0.00     0.121 A 
HETATM   14  C   UNL     1      -3.750   0.750   0.000  1.00  0.00     0.022 A 
HETATM   15  C   UNL     1      -5.250   0.750   0.000  1.00  0.00     0.005 A 
HETATM   16  N   UNL     1      -1.500   4.647   0.000  1.00  0.00    -0.309 N 
HETATM   17  S   UNL     1      -3.750   5.946   0.000  1.00  0.00    -0.042 SA
HETATM   18  N   UNL     1      -1.500   7.245   0.000  1.00  0.00    -0.301 N 
HETATM   19  S   UNL     1      -3.750   8.544   0.000  1.00  0.00    -0.052 SA
HETATM   20  C   UNL     1      -1.500   2.049   0.000  1.00  0.00     0.046 A 
HETATM   21  C   UNL     1      -0.750   3.348   0.000  1.00  0.00     0.112 A 
HETATM   22  C   UNL     1      -0.750   8.544   0.000  1.00  0.00     0.113 A 
HETATM   23  C   UNL     1       0.750   8.544   0.000  1.00  0.00     0.046 A 
ENDROOT
TORSDOF 0
