REMARK  13 active torsions:
REMARK  status: ('A' for Active; 'I' for Inactive)
REMARK    1  A    between atoms: C_2  and  C_3 
REMARK    2  A    between atoms: C_3  and  C_4 
REMARK    3  A    between atoms: C_4  and  C_5 
REMARK    4  A    between atoms: C_5  and  C_6 
REMARK    5  A    between atoms: C_6  and  C_7 
REMARK    6  A    between atoms: C_7  and  C_8 
REMARK    7  A    between atoms: C_8  and  C_9 
REMARK    8  A    between atoms: C_9  and  C_10 
REMARK    9  A    between atoms: C_10  and  C_11 
REMARK   10  A    between atoms: C_13  and  O_15 
REMARK   11  A    between atoms: C_18  and  N_24 
REMARK   12  A    between atoms: C_19  and  O_21 
REMARK   13  A    between atoms: O_21  and  C_22 
REMARK       I    between atoms: N_24  and  C_25 
ROOT
HETATM    1  C   UNL     1      -2.079   1.020   0.000  1.00  0.00     0.064 A 
HETATM    2  C   UNL     1      -0.805   0.227   0.000  1.00  0.00     0.124 A 
HETATM    3  O   UNL     1      -3.488  -2.283   0.000  1.00  0.00     0.000 OA
HETATM    4  C   UNL     1      -2.696  -1.010   0.000  1.00  0.00     0.117 A 
HETATM    5  O   UNL     1      -1.196  -1.060   0.000  1.00  0.00    -0.334 OA
HETATM    6  C   UNL     1      -3.402   0.313   0.000  1.00  0.00     0.184 A 
HETATM    7  C   UNL     1      -4.725  -0.393   0.000  1.00  0.00     0.296 A 
HETATM    8  O   UNL     1      -4.775  -1.892   0.000  1.00  0.00    -0.188 OA
ENDROOT
BRANCH   2   9
HETATM    9  C   UNL     1       0.518   0.933   0.000  1.00  0.00     0.030 C 
BRANCH   9  10
HETATM   10  C   UNL     1       1.791   0.140   0.000  1.00  0.00     0.003 C 
BRANCH  10  11
HETATM   11  C   UNL     1       3.115   0.847   0.000  1.00  0.00     0.000 C 
BRANCH  11  12
HETATM   12  C   UNL     1       4.388   0.054   0.000  1.00  0.00     0.000 C 
BRANCH  12  13
HETATM   13  C   UNL     1       5.711   0.760   0.000  1.00  0.00     0.000 C 
BRANCH  13  14
HETATM   14  C   UNL     1       6.984  -0.032   0.000  1.00  0.00     0.000 C 
BRANCH  14  15
HETATM   15  C   UNL     1       8.308   0.674   0.000  1.00  0.00     0.000 C 
BRANCH  15  16
HETATM   16  C   UNL     1       9.581  -0.119   0.000  1.00  0.00     0.000 C 
BRANCH  16  17
HETATM   17  C   UNL     1      10.905   0.588   0.000  1.00  0.00     0.000 C 
HETATM   18  C   UNL     1      12.178  -0.205   0.000  1.00  0.00     0.000 C 
ENDBRANCH  16  17
ENDBRANCH  15  16
ENDBRANCH  14  15
ENDBRANCH  13  14
ENDBRANCH  12  13
ENDBRANCH  11  12
ENDBRANCH  10  11
ENDBRANCH   9  10
ENDBRANCH   2   9
BRANCH   6  19
HETATM   19  N   UNL     1      -4.108   1.636   0.000  1.00  0.00    -0.242 NA
HETATM   20  C   UNL     1      -3.316   2.910   0.000  1.00  0.00     0.186 C 
HETATM   21  O   UNL     1      -4.022   4.233   0.000  1.00  0.00    -0.174 OA
HETATM   22  C   UNL     1      -1.816   2.860   0.000  1.00  0.00     0.083 C 
ENDBRANCH   6  19
BRANCH   7  23
HETATM   23  O   UNL     1      -5.999   0.400   0.000  1.00  0.00    -0.327 OA
BRANCH  23  24
HETATM   24  C   UNL     1      -7.322  -0.307   0.000  1.00  0.00     0.145 C 
HETATM   25  C   UNL     1      -7.372  -1.806   0.000  1.00  0.00     0.035 C 
ENDBRANCH  23  24
ENDBRANCH   7  23
BRANCH   3  26
HETATM   26  C   UNL     1      -2.782  -3.607   0.000  1.00  0.00     0.000 C 
HETATM   27  C   UNL     1      -3.575  -4.880   0.000  1.00  0.00     0.000 C 
ENDBRANCH   3  26
TORSDOF 13
