REMARK  7 active torsions:
REMARK  status: ('A' for Active; 'I' for Inactive)
REMARK    1  A    between atoms: C_7  and  N_29 
REMARK    2  A    between atoms: C_9  and  N_32 
REMARK    3  A    between atoms: C_13  and  N_38 
REMARK    4  A    between atoms: C_15  and  N_39 
REMARK    5  A    between atoms: C_22  and  N_32 
REMARK    6  A    between atoms: C_25  and  N_39 
REMARK    7  A    between atoms: C_36  and  N_38 
ROOT
HETATM    1  C   UNL     1     -13.365   2.350   0.000  1.00  0.00     0.037 A 
HETATM    2  C   UNL     1     -14.664   3.100   0.000  1.00  0.00     0.047 A 
HETATM    3  C   UNL     1     -13.365   0.851   0.000  1.00  0.00     0.039 A 
HETATM    4  C   UNL     1     -14.664   0.101   0.000  1.00  0.00     0.100 A 
HETATM    5  C   UNL     1     -15.963   2.350   0.000  1.00  0.00     0.043 A 
HETATM    6  C   UNL     1     -15.963   0.851   0.000  1.00  0.00     0.090 A 
HETATM    7  N   UNL     1     -14.664  -1.399   0.000  1.00  0.00    -0.062 N 
HETATM    8  O   UNL     1     -13.365  -2.150   0.000  1.00  0.00    -0.074 OA
HETATM    9  O   UNL     1     -15.963  -2.150   0.000  1.00  0.00    -0.055 OA
HETATM   10  C   UNL     1     -12.066   0.101   0.000  1.00  0.00     0.211 A 
HETATM   11  O   UNL     1     -12.066  -1.399   0.000  1.00  0.00    -0.150 OA
ENDROOT
BRANCH   5  12
HETATM   12  N   UNL     1     -17.262   3.100   0.000  1.00  0.00    -0.258 NA
BRANCH  12  13
HETATM   13  C   UNL     1     -17.262   4.601   0.000  1.00  0.00     0.058 A 
HETATM   14  C   UNL     1     -18.561   5.351   0.000  1.00  0.00     0.010 A 
HETATM   15  C   UNL     1     -18.562   6.851   0.000  1.00  0.00     0.052 A 
HETATM   16  C   UNL     1     -19.861   4.601   0.000  1.00  0.00     0.074 A 
HETATM   17  N   UNL     1     -17.262   7.601   0.000  1.00  0.00    -0.275 NA
HETATM   18  C   UNL     1     -19.861   7.601   0.000  1.00  0.00     0.051 A 
HETATM   19  C   UNL     1     -15.963   6.851   0.000  1.00  0.00     0.132 A 
HETATM   20  C   UNL     1     -15.963   5.351   0.000  1.00  0.00     0.072 A 
HETATM   21  C   UNL     1     -21.160   6.851   0.000  1.00  0.00     0.052 A 
HETATM   22  C   UNL     1     -21.160   5.351   0.000  1.00  0.00     0.087 A 
BRANCH  22  23
HETATM   23  N   UNL     1     -22.459   4.601   0.000  1.00  0.00    -0.122 N 
HETATM   24  O   UNL     1     -23.758   5.350   0.000  1.00  0.00    -0.532 OA
HETATM   25  O   UNL     1     -22.459   3.100   0.000  1.00  0.00    -0.532 OA
ENDBRANCH  22  23
ENDBRANCH  12  13
ENDBRANCH   5  12
BRANCH  10  26
HETATM   26  N   UNL     1     -10.767   0.851   0.000  1.00  0.00    -0.229 NA
BRANCH  26  27
HETATM   27  C   UNL     1      -9.468   0.101   0.000  1.00  0.00     0.040 A 
HETATM   28  C   UNL     1      -8.169   0.851   0.000  1.00  0.00     0.047 A 
HETATM   29  C   UNL     1      -6.870   0.101   0.000  1.00  0.00     0.047 A 
HETATM   30  C   UNL     1      -6.870  -1.399   0.000  1.00  0.00     0.037 A 
HETATM   31  C   UNL     1      -8.169  -2.150   0.000  1.00  0.00     0.047 A 
HETATM   32  C   UNL     1      -9.468  -1.399   0.000  1.00  0.00     0.047 A 
BRANCH  30  33
HETATM   33  N   UNL     1      -5.571  -2.150   0.000  1.00  0.00    -0.263 NA
BRANCH  33  34
HETATM   34  C   UNL     1      -4.272  -1.399   0.000  1.00  0.00     0.040 A 
HETATM   35  C   UNL     1      -4.272   0.101   0.000  1.00  0.00     0.067 A 
HETATM   36  C   UNL     1      -2.973   0.851   0.000  1.00  0.00     0.126 A 
HETATM   37  N   UNL     1      -1.674   0.101   0.000  1.00  0.00    -0.295 NA
HETATM   38  C   UNL     1      -1.674  -1.399   0.000  1.00  0.00     0.126 A 
HETATM   39  C   UNL     1      -2.973  -2.150   0.000  1.00  0.00     0.067 A 
ENDBRANCH  33  34
ENDBRANCH  30  33
ENDBRANCH  26  27
ENDBRANCH  10  26
TORSDOF 7
