REMARK  2 active torsions:
REMARK  status: ('A' for Active; 'I' for Inactive)
REMARK    1  A    between atoms: C_10  and  N_17 
REMARK    2  A    between atoms: C_11  and  N_20 
REMARK       I    between atoms: N_17  and  C_18 
REMARK       I    between atoms: C_18  and  N_20 
ROOT
HETATM    1  N   UNL     1       4.647  -3.000   0.000  1.00  0.00    -0.206 NA
HETATM    2  C   UNL     1       3.348  -2.250   0.000  1.00  0.00     0.300 C 
HETATM    3  O   UNL     1       3.348  -0.750   0.000  1.00  0.00    -0.147 OA
HETATM    4  N   UNL     1       2.049  -3.000   0.000  1.00  0.00    -0.212 NA
ENDROOT
BRANCH   1   5
HETATM    5  C   UNL     1       5.796  -2.036   0.000  1.00  0.00     0.082 A 
HETATM    6  C   UNL     1       7.206  -2.549   0.000  1.00  0.00     0.118 A 
HETATM    7  N   UNL     1       7.768  -3.940   0.000  1.00  0.00    -0.190 NA
HETATM    8  C   UNL     1       8.355  -1.585   0.000  1.00  0.00     0.088 A 
HETATM    9  S   UNL     1       9.264  -3.835   0.000  1.00  0.00     0.117 SA
HETATM   10  N   UNL     1       9.627  -2.380   0.000  1.00  0.00    -0.195 NA
HETATM   11  C   UNL     1       8.094  -0.107   0.000  1.00  0.00     0.049 A 
HETATM   12  C   UNL     1       6.685   0.406   0.000  1.00  0.00     0.013 A 
HETATM   13  C   UNL     1       5.536  -0.559   0.000  1.00  0.00     0.048 A 
ENDBRANCH   1   5
BRANCH   4  14
HETATM   14  C   UNL     1       2.049  -4.500   0.000  1.00  0.00     0.041 A 
HETATM   15  C   UNL     1       3.348  -5.250   0.000  1.00  0.00     0.047 A 
HETATM   16  C   UNL     1       3.348  -6.750   0.000  1.00  0.00     0.040 A 
HETATM   17  C   UNL     1       2.049  -7.500   0.000  1.00  0.00     0.014 A 
HETATM   18 CL   UNL     1       2.049  -9.000   0.000  1.00  0.00    -0.092 Cl
HETATM   19  C   UNL     1       0.750  -6.750   0.000  1.00  0.00     0.040 A 
HETATM   20  C   UNL     1       0.750  -5.250   0.000  1.00  0.00     0.047 A 
ENDBRANCH   4  14
TORSDOF 2
