REMARK  5 active torsions:
REMARK  status: ('A' for Active; 'I' for Inactive)
REMARK    1  A    between atoms: C_4  and  N_13 
REMARK    2  A    between atoms: C_6  and  C_11 
REMARK    3  A    between atoms: O_8  and  C_9 
REMARK    4  A    between atoms: O_8  and  C_11 
REMARK    5  A    between atoms: N_13  and  C_14 
ROOT
HETATM    1  C   UNL     1      -0.275  -4.024   0.000  1.00  0.00    -0.127 C 
HETATM    2  C   UNL     1      -1.574  -4.774   0.000  1.00  0.00     0.188 C 
HETATM    3  C   UNL     1       1.024  -3.275   0.000  1.00  0.00     0.078 C 
ENDROOT
BRANCH   2   4
HETATM    4  N   UNL     1      -2.873  -4.024   0.000  1.00  0.00    -0.266 NA
BRANCH   4   5
HETATM    5  C   UNL     1      -4.172  -4.774   0.000  1.00  0.00     0.033 A 
HETATM    6  C   UNL     1      -5.471  -4.024   0.000  1.00  0.00     0.045 A 
HETATM    7  C   UNL     1      -6.770  -4.774   0.000  1.00  0.00     0.032 A 
HETATM    8  C   UNL     1      -6.770  -6.274   0.000  1.00  0.00     0.005 A 
HETATM    9  C   UNL     1      -5.471  -7.024   0.000  1.00  0.00     0.032 A 
HETATM   10  C   UNL     1      -4.172  -6.274   0.000  1.00  0.00     0.045 A 
BRANCH   8  11
HETATM   11  C   UNL     1      -8.069  -7.024   0.000  1.00  0.00     0.220 C 
HETATM   12  O   UNL     1      -9.368  -6.274   0.000  1.00  0.00    -0.164 OA
BRANCH  11  13
HETATM   13  O   UNL     1      -8.069  -8.524   0.000  1.00  0.00    -0.309 OA
BRANCH  13  14
HETATM   14  C   UNL     1      -9.368  -9.274   0.000  1.00  0.00     0.151 C 
HETATM   15  C   UNL     1      -9.368 -10.774   0.000  1.00  0.00     0.035 C 
ENDBRANCH  13  14
ENDBRANCH  11  13
ENDBRANCH   8  11
ENDBRANCH   4   5
ENDBRANCH   2   4
TORSDOF 5
