REMARK  1 active torsions:
REMARK  status: ('A' for Active; 'I' for Inactive)
REMARK    1  A    between atoms: N_2  and  C_3 
ROOT
HETATM    1  C   UNL     1       5.136   2.823   0.000  1.00  0.00    -0.135 C 
HETATM    2  C   UNL     1       4.172   1.674   0.000  1.00  0.00     0.104 A 
HETATM    3  C   UNL     1       3.208   2.823   0.000  1.00  0.00     0.032 A 
HETATM    4  C   UNL     1       1.731   2.563   0.000  1.00  0.00     0.003 A 
HETATM    5  C   UNL     1       3.659   0.264   0.000  1.00  0.00     0.032 A 
HETATM    6  C   UNL     1       1.218   1.153   0.000  1.00  0.00     0.000 A 
HETATM    7  C   UNL     1       2.182   0.004   0.000  1.00  0.00     0.003 A 
HETATM    8  C   UNL     1       6.101   3.972   0.000  1.00  0.00     0.078 C 
ENDROOT
BRANCH   2   9
HETATM    9  N   UNL     1       5.471   0.924   0.000  1.00  0.00    -0.363 N 
HETATM   10  C   UNL     1       6.770   1.674   0.000  1.00  0.00     0.098 A 
HETATM   11  C   UNL     1       8.069   0.924   0.000  1.00  0.00     0.024 A 
HETATM   12  C   UNL     1       8.069  -0.576   0.000  1.00  0.00     0.004 A 
HETATM   13  C   UNL     1       6.770  -1.326   0.000  1.00  0.00     0.024 A 
HETATM   14  C   UNL     1       5.471  -0.576   0.000  1.00  0.00     0.098 A 
ENDBRANCH   2   9
TORSDOF 1
