REMARK  2 active torsions:
REMARK  status: ('A' for Active; 'I' for Inactive)
REMARK    1  A    between atoms: C_5  and  N_17 
REMARK    2  A    between atoms: C_6  and  N_20 
REMARK       I    between atoms: N_17  and  C_18 
REMARK       I    between atoms: C_18  and  N_20 
ROOT
HETATM    1  C   UNL     1      -5.960  -4.500   0.000  1.00  0.00     0.058 A 
HETATM    2  C   UNL     1      -7.259  -5.250   0.000  1.00  0.00    -0.016 A 
HETATM    3  C   UNL     1      -4.661  -5.250   0.000  1.00  0.00     0.046 A 
HETATM    4  C   UNL     1      -8.558  -4.500   0.000  1.00  0.00     0.027 A 
HETATM    5  C   UNL     1      -9.857  -5.250   0.000  1.00  0.00     0.005 A 
HETATM    6  C   UNL     1      -4.661  -6.750   0.000  1.00  0.00     0.011 A 
HETATM    7  C   UNL     1      -7.259  -6.750   0.000  1.00  0.00    -0.047 A 
HETATM    8  C   UNL     1      -9.857  -6.750   0.000  1.00  0.00     0.005 A 
HETATM    9  C   UNL     1      -5.960  -7.500   0.000  1.00  0.00     0.022 A 
HETATM   10  C   UNL     1      -8.558  -7.500   0.000  1.00  0.00     0.022 A 
ENDROOT
BRANCH   1  11
HETATM   11  N   UNL     1      -5.960  -3.000   0.000  1.00  0.00    -0.208 NA
HETATM   12  C   UNL     1      -4.661  -2.250   0.000  1.00  0.00     0.301 C 
HETATM   13  N   UNL     1      -3.362  -3.000   0.000  1.00  0.00    -0.186 NA
HETATM   14  O   UNL     1      -4.661  -0.750   0.000  1.00  0.00    -0.147 OA
BRANCH  13  15
HETATM   15  C   UNL     1      -2.063  -2.250   0.000  1.00  0.00     0.172 A 
HETATM   16  N   UNL     1      -1.906  -0.758   0.000  1.00  0.00    -0.116 NA
HETATM   17  O   UNL     1      -0.439  -0.446   0.000  1.00  0.00    -0.238 OA
HETATM   18  C   UNL     1       0.311  -1.745   0.000  1.00  0.00     0.154 A 
HETATM   19  C   UNL     1      -0.693  -2.860   0.000  1.00  0.00     0.101 A 
HETATM   20  C   UNL     1       1.803  -1.902   0.000  1.00  0.00     0.035 C 
ENDBRANCH  13  15
ENDBRANCH   1  11
TORSDOF 2
