REMARK  3 active torsions:
REMARK  status: ('A' for Active; 'I' for Inactive)
REMARK    1  A    between atoms: C_8  and  N_21 
REMARK    2  A    between atoms: C_9  and  N_22 
REMARK    3  A    between atoms: C_19  and  N_21 
ROOT
HETATM    1 CL   UNL     1       9.468  -1.399   0.000  1.00  0.00    -0.080 Cl
HETATM    2 CL   UNL     1       9.468   1.601   0.000  1.00  0.00    -0.086 Cl
HETATM    3  O   UNL     1       4.272  -1.399   0.000  1.00  0.00    -0.320 OA
HETATM    4 CL   UNL     1       4.272   1.601   0.000  1.00  0.00    -0.085 Cl
HETATM    5  C   UNL     1       6.870  -1.399   0.000  1.00  0.00     0.135 A 
HETATM    6  C   UNL     1       5.571  -0.649   0.000  1.00  0.00     0.125 A 
HETATM    7  C   UNL     1       8.169  -0.649   0.000  1.00  0.00     0.089 A 
HETATM    8  C   UNL     1       5.571   0.851   0.000  1.00  0.00     0.065 A 
HETATM    9  C   UNL     1       8.169   0.851   0.000  1.00  0.00     0.053 A 
HETATM   10  C   UNL     1       6.870   1.601   0.000  1.00  0.00     0.079 A 
HETATM   11  C   UNL     1       4.272  -2.900   0.000  1.00  0.00     0.220 A 
HETATM   12  C   UNL     1       5.571  -3.650   0.000  1.00  0.00     0.189 A 
HETATM   13  O   UNL     1       6.870  -2.900   0.000  1.00  0.00    -0.288 OA
ENDROOT
BRANCH  12  14
HETATM   14  N   UNL     1       5.571  -5.149   0.000  1.00  0.00    -0.228 NA
BRANCH  14  15
HETATM   15  C   UNL     1       6.870  -5.899   0.000  1.00  0.00     0.068 A 
HETATM   16  C   UNL     1       8.169  -5.149   0.000  1.00  0.00     0.053 A 
HETATM   17  C   UNL     1       9.468  -5.899   0.000  1.00  0.00     0.052 A 
HETATM   18  C   UNL     1       9.468  -7.399   0.000  1.00  0.00     0.088 A 
HETATM   19  C   UNL     1       8.169  -8.149   0.000  1.00  0.00     0.085 A 
HETATM   20  C   UNL     1       6.870  -7.399   0.000  1.00  0.00     0.055 A 
HETATM   21 CL   UNL     1       5.571  -8.149   0.000  1.00  0.00    -0.085 Cl
BRANCH  18  22
HETATM   22  N   UNL     1      10.767  -8.149   0.000  1.00  0.00    -0.122 N 
HETATM   23  O   UNL     1      12.066  -7.399   0.000  1.00  0.00    -0.532 OA
HETATM   24  O   UNL     1      10.767  -9.649   0.000  1.00  0.00    -0.532 OA
ENDBRANCH  18  22
ENDBRANCH  14  15
ENDBRANCH  12  14
TORSDOF 3
