REMARK  3 active torsions:
REMARK  status: ('A' for Active; 'I' for Inactive)
REMARK    1  A    between atoms: C_3  and  N_28 
REMARK    2  A    between atoms: C_5  and  N_9 
REMARK       I    between atoms: C_7  and  N_9 
REMARK    3  A    between atoms: C_7  and  C_10 
ROOT
HETATM    1  C   UNL     1      -4.821  -8.149   0.000  1.00  0.00     0.011 A 
HETATM    2  C   UNL     1      -3.522  -8.899   0.000  1.00  0.00     0.080 A 
HETATM    3  C   UNL     1      -2.223  -8.149   0.000  1.00  0.00     0.107 A 
HETATM    4  C   UNL     1      -2.223  -6.649   0.000  1.00  0.00     0.023 A 
HETATM    5  C   UNL     1      -3.522  -5.899   0.000  1.00  0.00     0.028 A 
HETATM    6  C   UNL     1      -4.821  -6.649   0.000  1.00  0.00     0.056 A 
HETATM    7  C   UNL     1      -3.522  -4.399   0.000  1.00  0.00     0.209 A 
HETATM    8  O   UNL     1      -4.821  -3.650   0.000  1.00  0.00    -0.170 OA
HETATM    9  N   UNL     1      -2.223  -3.650   0.000  1.00  0.00    -0.225 NA
HETATM   10  C   UNL     1      -0.924  -4.399   0.000  1.00  0.00     0.062 A 
HETATM   11  C   UNL     1      -0.924  -5.899   0.000  1.00  0.00     0.031 A 
HETATM   12  C   UNL     1       0.375  -6.649   0.000  1.00  0.00     0.094 A 
HETATM   13  C   UNL     1       1.674  -5.899   0.000  1.00  0.00     0.049 A 
HETATM   14  C   UNL     1       1.674  -4.399   0.000  1.00  0.00     0.013 A 
HETATM   15  C   UNL     1       0.375  -3.650   0.000  1.00  0.00     0.046 A 
HETATM   16  N   UNL     1       0.375  -8.149   0.000  1.00  0.00    -0.088 N 
HETATM   17  O   UNL     1      -0.924  -8.899   0.000  1.00  0.00    -0.210 OA
HETATM   18  O   UNL     1       1.674  -8.899   0.000  1.00  0.00    -0.057 OA
ENDROOT
BRANCH   1  19
HETATM   19  C   UNL     1      -6.120  -8.899   0.000  1.00  0.00     0.205 C 
HETATM   20  O   UNL     1      -6.120 -10.399   0.000  1.00  0.00    -0.170 OA
HETATM   21  N   UNL     1      -7.419  -8.149   0.000  1.00  0.00    -0.229 NA
BRANCH  21  22
HETATM   22  C   UNL     1      -8.718  -8.899   0.000  1.00  0.00     0.045 A 
HETATM   23  C   UNL     1      -8.718 -10.399   0.000  1.00  0.00     0.087 A 
HETATM   24  C   UNL     1     -10.017 -11.149   0.000  1.00  0.00     0.088 A 
HETATM   25  C   UNL     1     -11.316 -10.399   0.000  1.00  0.00     0.047 A 
HETATM   26  C   UNL     1     -11.316  -8.899   0.000  1.00  0.00     0.012 A 
HETATM   27  C   UNL     1     -10.017  -8.149   0.000  1.00  0.00     0.042 A 
BRANCH  24  28
HETATM   28  N   UNL     1     -10.017 -12.649   0.000  1.00  0.00    -0.122 N 
HETATM   29  O   UNL     1     -11.316 -13.399   0.000  1.00  0.00    -0.532 OA
HETATM   30  O   UNL     1      -8.718 -13.399   0.000  1.00  0.00    -0.532 OA
ENDBRANCH  24  28
ENDBRANCH  21  22
ENDBRANCH   1  19
TORSDOF 3
