REMARK  4 active torsions:
REMARK  status: ('A' for Active; 'I' for Inactive)
REMARK    1  A    between atoms: C_8  and  N_20 
REMARK    2  A    between atoms: C_9  and  O_11 
REMARK       I    between atoms: C_9  and  N_20 
REMARK    3  A    between atoms: O_11  and  C_12 
REMARK    4  A    between atoms: C_17  and  N_21 
ROOT
HETATM    1  C   UNL     1      -7.500  -5.946   0.000  1.00  0.00     0.126 A 
HETATM    2  C   UNL     1      -6.750  -4.647   0.000  1.00  0.00     0.036 A 
HETATM    3  C   UNL     1      -6.750  -7.245   0.000  1.00  0.00     0.036 A 
HETATM    4  C   UNL     1      -5.250  -4.647   0.000  1.00  0.00     0.042 A 
HETATM    5  C   UNL     1      -5.250  -7.245   0.000  1.00  0.00     0.042 A 
HETATM    6  C   UNL     1      -4.500  -5.946   0.000  1.00  0.00     0.017 A 
ENDROOT
BRANCH   1   7
HETATM    7  O   UNL     1      -9.000  -5.946   0.000  1.00  0.00    -0.297 OA
BRANCH   7   8
HETATM    8  C   UNL     1      -9.513  -4.537   0.000  1.00  0.00     0.318 C 
HETATM    9  O   UNL     1      -8.549  -3.388   0.000  1.00  0.00    -0.141 OA
HETATM   10  N   UNL     1     -10.990  -4.276   0.000  1.00  0.00    -0.207 NA
BRANCH  10  11
HETATM   11  C   UNL     1     -11.954  -5.425   0.000  1.00  0.00     0.047 A 
HETATM   12  C   UNL     1     -11.441  -6.835   0.000  1.00  0.00     0.048 A 
HETATM   13  C   UNL     1     -12.406  -7.984   0.000  1.00  0.00     0.044 A 
HETATM   14  C   UNL     1     -13.883  -7.723   0.000  1.00  0.00     0.043 A 
HETATM   15 CL   UNL     1     -14.847  -8.872   0.000  1.00  0.00    -0.086 Cl
HETATM   16  C   UNL     1     -14.396  -6.314   0.000  1.00  0.00     0.048 A 
HETATM   17 CL   UNL     1     -15.873  -6.053   0.000  1.00  0.00    -0.086 Cl
HETATM   18  C   UNL     1     -13.432  -5.165   0.000  1.00  0.00     0.080 A 
ENDBRANCH  10  11
ENDBRANCH   7   8
ENDBRANCH   1   7
BRANCH   6  19
HETATM   19  N   UNL     1      -3.000  -5.946   0.000  1.00  0.00    -0.312 N 
HETATM   20  C   UNL     1      -2.487  -4.537   0.000  1.00  0.00     0.197 A 
HETATM   21  S   UNL     1      -3.451  -3.388   0.000  1.00  0.00    -0.039 SA
HETATM   22  N   UNL     1      -1.010  -4.276   0.000  1.00  0.00    -0.245 NA
HETATM   23  C   UNL     1      -0.046  -5.425   0.000  1.00  0.00     0.130 A 
HETATM   24  C   UNL     1      -0.559  -6.835   0.000  1.00  0.00     0.051 A 
HETATM   25  C   UNL     1      -2.036  -7.095   0.000  1.00  0.00     0.110 A 
ENDBRANCH   6  19
TORSDOF 4
