REMARK  7 active torsions:
REMARK  status: ('A' for Active; 'I' for Inactive)
REMARK    1  A    between atoms: O_2  and  C_11 
REMARK    2  A    between atoms: O_2  and  C_19 
REMARK    3  A    between atoms: C_5  and  N_21 
REMARK    4  A    between atoms: C_6  and  C_22 
REMARK    5  A    between atoms: C_12  and  C_16 
REMARK       I    between atoms: C_19  and  N_21 
REMARK    6  A    between atoms: C_22  and  O_24 
REMARK    7  A    between atoms: O_24  and  C_25 
ROOT
HETATM    1  C   UNL     1       6.870  -4.399   0.000  1.00  0.00     0.322 C 
HETATM    2  O   UNL     1       8.169  -3.650   0.000  1.00  0.00    -0.141 OA
HETATM    3  N   UNL     1       6.870  -5.899   0.000  1.00  0.00    -0.207 NA
ENDROOT
BRANCH   1   4
HETATM    4  O   UNL     1       5.571  -3.650   0.000  1.00  0.00    -0.273 OA
BRANCH   4   5
HETATM    5  C   UNL     1       5.571  -2.150   0.000  1.00  0.00     0.081 A 
HETATM    6  C   UNL     1       6.870  -1.399   0.000  1.00  0.00     0.074 A 
HETATM    7  C   UNL     1       6.870   0.101   0.000  1.00  0.00    -0.031 A 
HETATM    8  C   UNL     1       5.571   0.851   0.000  1.00  0.00     0.032 A 
HETATM    9  C   UNL     1       8.169   0.851   0.000  1.00  0.00     0.027 C 
HETATM   10 CL   UNL     1       5.571   2.350   0.000  1.00  0.00    -0.087 Cl
HETATM   11  C   UNL     1       4.272   0.101   0.000  1.00  0.00     0.065 A 
HETATM   12  C   UNL     1       4.272  -1.399   0.000  1.00  0.00    -0.006 A 
BRANCH  12  13
HETATM   13  C   UNL     1       2.973  -2.150   0.000  1.00  0.00    -0.046 C 
HETATM   14  C   UNL     1       2.973  -3.650   0.000  1.00  0.00     0.026 C 
HETATM   15  C   UNL     1       1.674  -1.399   0.000  1.00  0.00     0.026 C 
ENDBRANCH  12  13
ENDBRANCH   4   5
ENDBRANCH   1   4
BRANCH   3  16
HETATM   16  C   UNL     1       8.169  -6.649   0.000  1.00  0.00     0.042 A 
HETATM   17  C   UNL     1       9.468  -5.899   0.000  1.00  0.00     0.046 A 
HETATM   18  C   UNL     1      10.767  -6.649   0.000  1.00  0.00     0.032 A 
HETATM   19  C   UNL     1      10.767  -8.149   0.000  1.00  0.00     0.005 A 
HETATM   20  C   UNL     1       9.468  -8.899   0.000  1.00  0.00     0.032 A 
HETATM   21  C   UNL     1       8.169  -8.149   0.000  1.00  0.00     0.046 A 
BRANCH  19  22
HETATM   22  C   UNL     1      12.066  -8.899   0.000  1.00  0.00     0.220 C 
HETATM   23  O   UNL     1      13.365  -8.149   0.000  1.00  0.00    -0.164 OA
BRANCH  22  24
HETATM   24  O   UNL     1      12.066 -10.399   0.000  1.00  0.00    -0.309 OA
BRANCH  24  25
HETATM   25  C   UNL     1      13.365 -11.149   0.000  1.00  0.00     0.151 C 
HETATM   26  C   UNL     1      13.365 -12.649   0.000  1.00  0.00     0.035 C 
ENDBRANCH  24  25
ENDBRANCH  22  24
ENDBRANCH  19  22
ENDBRANCH   3  16
TORSDOF 7
