REMARK  1 active torsions:
REMARK  status: ('A' for Active; 'I' for Inactive)
REMARK    1  A    between atoms: C_12  and  N_15 
ROOT
HETATM    1  N   UNL     1       0.750  -8.544   0.000  1.00  0.00    -0.290 NA
HETATM    2  C   UNL     1       1.500  -7.245   0.000  1.00  0.00     0.145 A 
HETATM    3  C   UNL     1       1.500  -9.843   0.000  1.00  0.00     0.125 A 
HETATM    4  C   UNL     1       3.000  -9.843   0.000  1.00  0.00     0.048 A 
HETATM    5  C   UNL     1       3.000  -7.245   0.000  1.00  0.00    -0.010 A 
HETATM    6  C   UNL     1       3.750  -8.544   0.000  1.00  0.00    -0.044 A 
HETATM    7  C   UNL     1       5.250  -5.946   0.000  1.00  0.00    -0.047 A 
HETATM    8  C   UNL     1       6.000  -4.647   0.000  1.00  0.00     0.028 A 
HETATM    9  C   UNL     1       3.750  -5.946   0.000  1.00  0.00    -0.027 A 
HETATM   10  C   UNL     1       3.000  -4.647   0.000  1.00  0.00     0.071 A 
HETATM   11  C   UNL     1       5.250  -3.348   0.000  1.00  0.00     0.051 A 
HETATM   12  C   UNL     1       3.750  -3.348   0.000  1.00  0.00     0.087 A 
HETATM   13  C   UNL     1       5.250  -8.544   0.000  1.00  0.00     0.026 A 
HETATM   14  C   UNL     1       6.000  -7.245   0.000  1.00  0.00     0.026 A 
ENDROOT
BRANCH  12  15
HETATM   15  N   UNL     1       3.000  -2.049   0.000  1.00  0.00    -0.122 N 
HETATM   16  O   UNL     1       1.500  -2.049   0.000  1.00  0.00    -0.532 OA
HETATM   17  O   UNL     1       3.750  -0.750   0.000  1.00  0.00    -0.532 OA
ENDBRANCH  12  15
TORSDOF 1
