REMARK  0 active torsions:
REMARK  status: ('A' for Active; 'I' for Inactive)
ROOT
HETATM    1  N   UNL     1      -9.468  -1.399   0.000  1.00  0.00    -0.290 NA
HETATM    2  C   UNL     1      -2.973  -2.150   0.000  1.00  0.00     0.043 A 
HETATM    3  C   UNL     1      -2.973  -3.650   0.000  1.00  0.00     0.007 A 
HETATM    4  C   UNL     1      -4.272  -1.399   0.000  1.00  0.00     0.035 A 
HETATM    5  C   UNL     1      -4.272  -4.399   0.000  1.00  0.00     0.005 A 
HETATM    6  C   UNL     1      -5.571  -2.150   0.000  1.00  0.00    -0.013 A 
HETATM    7  C   UNL     1      -5.571  -3.650   0.000  1.00  0.00     0.027 A 
HETATM    8  C   UNL     1      -8.169   0.851   0.000  1.00  0.00     0.056 A 
HETATM    9  C   UNL     1      -6.870   0.101   0.000  1.00  0.00     0.020 A 
HETATM   10  C   UNL     1      -9.468   0.101   0.000  1.00  0.00     0.125 A 
HETATM   11  C   UNL     1      -6.870  -1.399   0.000  1.00  0.00    -0.002 A 
HETATM   12  C   UNL     1      -8.169  -2.150   0.000  1.00  0.00     0.146 A 
HETATM   13  C   UNL     1      -5.571   0.851   0.000  1.00  0.00     0.190 A 
HETATM   14  O   UNL     1      -5.571   2.350   0.000  1.00  0.00    -0.171 OA
HETATM   15  N   UNL     1      -4.272   0.101   0.000  1.00  0.00    -0.309 N 
HETATM   16  C   UNL     1      -2.973   0.851   0.000  1.00  0.00     0.132 C 
ENDROOT
TORSDOF 0
