REMARK  2 active torsions:
REMARK  status: ('A' for Active; 'I' for Inactive)
REMARK    1  A    between atoms: C_2  and  N_12 
REMARK    2  A    between atoms: C_5  and  N_6 
REMARK       I    between atoms: N_6  and  C_7 
REMARK       I    between atoms: N_12  and  C_14 
ROOT
HETATM    1  C   UNL     1       1.500  -3.348   0.000  1.00  0.00     0.064 A 
HETATM    2  C   UNL     1       3.000  -3.348   0.000  1.00  0.00     0.120 A 
HETATM    3  C   UNL     1       0.750  -4.647   0.000  1.00  0.00     0.016 A 
HETATM    4  C   UNL     1       1.500  -5.946   0.000  1.00  0.00     0.064 A 
HETATM    5  C   UNL     1       3.000  -5.946   0.000  1.00  0.00     0.120 A 
HETATM    6  N   UNL     1       3.750  -4.647   0.000  1.00  0.00    -0.220 NA
ENDROOT
BRANCH   2   7
HETATM    7  N   UNL     1       3.750  -2.049   0.000  1.00  0.00    -0.325 N 
HETATM    8  H   UNL     1       3.000  -0.750   0.000  1.00  0.00     0.169 HD
HETATM    9  C   UNL     1       5.250  -2.049   0.000  1.00  0.00     0.169 C 
HETATM   10  O   UNL     1       6.000  -0.750   0.000  1.00  0.00    -0.176 OA
HETATM   11  C   UNL     1       6.000  -3.348   0.000  1.00  0.00     0.081 C 
ENDBRANCH   2   7
BRANCH   5  12
HETATM   12  N   UNL     1       3.750  -7.245   0.000  1.00  0.00    -0.325 N 
HETATM   13  C   UNL     1       3.000  -8.544   0.000  1.00  0.00     0.169 C 
HETATM   14  O   UNL     1       3.750  -9.843   0.000  1.00  0.00    -0.176 OA
HETATM   15  C   UNL     1       1.500  -8.544   0.000  1.00  0.00     0.081 C 
HETATM   16  H   UNL     1       5.250  -7.245   0.000  1.00  0.00     0.169 HD
ENDBRANCH   5  12
TORSDOF 2
