REMARK  6 active torsions:
REMARK  status: ('A' for Active; 'I' for Inactive)
REMARK    1  A    between atoms: O_2  and  C_12 
REMARK    2  A    between atoms: O_2  and  C_19 
REMARK    3  A    between atoms: O_3  and  C_13 
REMARK    4  A    between atoms: O_3  and  C_21 
REMARK    5  A    between atoms: C_21  and  C_22 
REMARK    6  A    between atoms: C_22  and  C_23 
ROOT
HETATM    1 CL   UNL     1       2.049 -14.250   0.000  1.00  0.00    -0.091 Cl
HETATM    2  C   UNL     1       2.049  -9.750   0.000  1.00  0.00    -0.011 A 
HETATM    3  C   UNL     1       3.348 -10.500   0.000  1.00  0.00     0.064 A 
HETATM    4  C   UNL     1       0.750 -10.500   0.000  1.00  0.00     0.033 A 
HETATM    5  C   UNL     1       3.348 -12.000   0.000  1.00  0.00     0.079 A 
HETATM    6  C   UNL     1       0.750 -12.000   0.000  1.00  0.00     0.039 A 
HETATM    7  C   UNL     1       2.049 -12.750   0.000  1.00  0.00     0.020 A 
HETATM    8  O   UNL     1       2.049  -8.250   0.000  1.00  0.00     0.000 OA
HETATM    9  C   UNL     1       0.750  -7.500   0.000  1.00  0.00     0.000 C 
HETATM   10  N   UNL     1       4.647  -9.750   0.000  1.00  0.00    -0.203 NA
HETATM   11  C   UNL     1       4.647  -8.250   0.000  1.00  0.00     0.318 A 
HETATM   12  O   UNL     1       3.348  -7.500   0.000  1.00  0.00    -0.141 OA
ENDROOT
BRANCH  11  13
HETATM   13  O   UNL     1       5.946  -7.500   0.000  1.00  0.00    -0.297 OA
BRANCH  13  14
HETATM   14  C   UNL     1       5.946  -6.000   0.000  1.00  0.00     0.125 A 
HETATM   15  C   UNL     1       4.647  -5.250   0.000  1.00  0.00     0.033 A 
HETATM   16  C   UNL     1       4.647  -3.750   0.000  1.00  0.00     0.032 A 
HETATM   17  C   UNL     1       5.946  -3.000   0.000  1.00  0.00     0.116 A 
HETATM   18  C   UNL     1       7.245  -3.750   0.000  1.00  0.00     0.032 A 
HETATM   19  C   UNL     1       7.245  -5.250   0.000  1.00  0.00     0.033 A 
BRANCH  17  20
HETATM   20  O   UNL     1       5.946  -1.500   0.000  1.00  0.00    -0.357 OA
BRANCH  20  21
HETATM   21  C   UNL     1       4.647  -0.750   0.000  1.00  0.00     0.142 C 
BRANCH  21  22
HETATM   22  C   UNL     1       3.348  -1.500   0.000  1.00  0.00     0.032 C 
BRANCH  22  23
HETATM   23  C   UNL     1       2.049  -0.750   0.000  1.00  0.00     0.003 C 
HETATM   24  C   UNL     1       0.750  -1.500   0.000  1.00  0.00     0.000 C 
ENDBRANCH  22  23
ENDBRANCH  21  22
ENDBRANCH  20  21
ENDBRANCH  17  20
ENDBRANCH  13  14
ENDBRANCH  11  13
TORSDOF 6
