REMARK  2 active torsions:
REMARK  status: ('A' for Active; 'I' for Inactive)
REMARK    1  A    between atoms: C_3  and  N_11 
REMARK    2  A    between atoms: C_5  and  N_10 
REMARK       I    between atoms: C_8  and  N_10 
REMARK       I    between atoms: N_11  and  C_12 
ROOT
HETATM    1  C   UNL     1      -5.946  -0.750   0.000  1.00  0.00     0.047 A 
HETATM    2  C   UNL     1      -7.245  -1.500   0.000  1.00  0.00     0.047 A 
HETATM    3  C   UNL     1      -4.647  -1.500   0.000  1.00  0.00     0.040 A 
HETATM    4  C   UNL     1      -4.647  -3.000   0.000  1.00  0.00     0.047 A 
HETATM    5  C   UNL     1      -7.245  -3.000   0.000  1.00  0.00     0.040 A 
HETATM    6  C   UNL     1      -5.946  -3.750   0.000  1.00  0.00     0.047 A 
ENDROOT
BRANCH   3   7
HETATM    7  N   UNL     1      -3.348  -0.750   0.000  1.00  0.00    -0.228 NA
HETATM    8  C   UNL     1      -2.049  -1.500   0.000  1.00  0.00     0.223 C 
HETATM    9  N   UNL     1      -0.750  -0.750   0.000  1.00  0.00    -0.065 NA
HETATM   10  N   UNL     1      -2.049  -3.000   0.000  1.00  0.00    -0.065 NA
ENDBRANCH   3   7
BRANCH   5  11
HETATM   11  N   UNL     1      -8.544  -3.750   0.000  1.00  0.00    -0.228 NA
HETATM   12  C   UNL     1      -9.843  -3.000   0.000  1.00  0.00     0.223 C 
HETATM   13  N   UNL     1     -11.142  -3.750   0.000  1.00  0.00    -0.065 NA
HETATM   14  N   UNL     1      -9.843  -1.500   0.000  1.00  0.00    -0.065 NA
ENDBRANCH   5  11
TORSDOF 2
