REMARK  3 active torsions:
REMARK  status: ('A' for Active; 'I' for Inactive)
REMARK    1  A    between atoms: C_11  and  C_18 
REMARK    2  A    between atoms: C_15  and  N_17 
REMARK    3  A    between atoms: N_17  and  C_18 
ROOT
HETATM    1  C   UNL     1       2.049  -7.054   0.000  1.00  0.00     0.003 A 
HETATM    2  C   UNL     1       0.750  -7.804   0.000  1.00  0.00     0.026 A 
HETATM    3  C   UNL     1       3.348  -7.804   0.000  1.00  0.00     0.071 A 
HETATM    4  C   UNL     1       3.348  -9.304   0.000  1.00  0.00    -0.027 A 
HETATM    5  C   UNL     1       0.750  -9.304   0.000  1.00  0.00     0.009 A 
HETATM    6  C   UNL     1       2.049 -10.054   0.000  1.00  0.00     0.024 A 
HETATM    7  C   UNL     1       2.049  -5.554   0.000  1.00  0.00     0.176 A 
HETATM    8  C   UNL     1       4.647 -10.054   0.000  1.00  0.00     0.028 C 
HETATM    9  N   UNL     1       4.647  -7.054   0.000  1.00  0.00    -0.207 NA
HETATM   10  C   UNL     1       4.647  -5.554   0.000  1.00  0.00     0.266 A 
HETATM   11  O   UNL     1       3.348  -4.804   0.000  1.00  0.00    -0.296 OA
ENDROOT
BRANCH  10  12
HETATM   12  N   UNL     1       5.946  -4.804   0.000  1.00  0.00    -0.229 NA
BRANCH  12  13
HETATM   13  C   UNL     1       5.946  -3.304   0.000  1.00  0.00     0.159 C 
BRANCH  13  14
HETATM   14  C   UNL     1       4.647  -2.554   0.000  1.00  0.00     0.140 A 
HETATM   15  O   UNL     1       3.277  -3.164   0.000  1.00  0.00    -0.355 OA
HETATM   16  C   UNL     1       2.273  -2.049   0.000  1.00  0.00     0.142 A 
HETATM   17  C   UNL     1       3.023  -0.750   0.000  1.00  0.00     0.035 A 
HETATM   18  C   UNL     1       4.490  -1.062   0.000  1.00  0.00     0.034 A 
ENDBRANCH  13  14
ENDBRANCH  12  13
ENDBRANCH  10  12
TORSDOF 3
