REMARK  4 active torsions:
REMARK  status: ('A' for Active; 'I' for Inactive)
REMARK    1  A    between atoms: C_1  and  C_13 
REMARK    2  A    between atoms: C_3  and  N_16 
REMARK    3  A    between atoms: C_9  and  N_19 
REMARK    4  A    between atoms: C_10  and  S_20 
REMARK       I    between atoms: N_16  and  C_17 
REMARK       I    between atoms: C_17  and  N_19 
ROOT
HETATM    1  N   UNL     1      -8.819   4.774   0.000  1.00  0.00    -0.208 NA
HETATM    2  C   UNL     1      -7.520   4.024   0.000  1.00  0.00     0.299 C 
HETATM    3  O   UNL     1      -6.221   4.774   0.000  1.00  0.00    -0.147 OA
HETATM    4  N   UNL     1      -7.520   2.525   0.000  1.00  0.00    -0.212 NA
ENDROOT
BRANCH   1   5
HETATM    5  C   UNL     1      -8.558   6.252   0.000  1.00  0.00     0.062 A 
HETATM    6  C   UNL     1      -9.707   7.216   0.000  1.00  0.00     0.030 A 
HETATM    7  C   UNL     1      -9.447   8.693   0.000  1.00  0.00     0.031 A 
HETATM    8  C   UNL     1      -8.037   9.206   0.000  1.00  0.00     0.005 A 
HETATM    9  C   UNL     1      -6.888   8.242   0.000  1.00  0.00     0.007 A 
HETATM   10  C   UNL     1      -7.149   6.765   0.000  1.00  0.00     0.046 A 
BRANCH   6  11
HETATM   11  C   UNL     1     -11.117   6.703   0.000  1.00  0.00     0.197 C 
HETATM   12  O   UNL     1     -12.266   7.667   0.000  1.00  0.00    -0.175 OA
HETATM   13  N   UNL     1     -11.377   5.226   0.000  1.00  0.00    -0.071 NA
ENDBRANCH   6  11
ENDBRANCH   1   5
BRANCH   4  14
HETATM   14  C   UNL     1      -6.221   1.774   0.000  1.00  0.00     0.041 A 
HETATM   15  C   UNL     1      -4.922   2.525   0.000  1.00  0.00     0.042 A 
HETATM   16  C   UNL     1      -3.623   1.774   0.000  1.00  0.00     0.017 A 
HETATM   17  C   UNL     1      -3.623   0.275   0.000  1.00  0.00     0.048 A 
HETATM   18  C   UNL     1      -4.922  -0.475   0.000  1.00  0.00     0.017 A 
HETATM   19  C   UNL     1      -6.221   0.275   0.000  1.00  0.00     0.042 A 
BRANCH  17  20
HETATM   20  S   UNL     1      -2.324  -0.475   0.000  1.00  0.00    -0.140 SA
HETATM   21  C   UNL     1      -1.024   0.275   0.000  1.00  0.00     0.069 C 
ENDBRANCH  17  20
ENDBRANCH   4  14
TORSDOF 4
