REMARK  3 active torsions:
REMARK  status: ('A' for Active; 'I' for Inactive)
REMARK    1  A    between atoms: C_8  and  N_18 
REMARK    2  A    between atoms: C_10  and  S_19 
REMARK    3  A    between atoms: C_16  and  N_18 
ROOT
HETATM    1  C   UNL     1      -2.223   5.149   0.000  1.00  0.00     0.003 A 
HETATM    2  C   UNL     1      -0.924   4.399   0.000  1.00  0.00     0.071 A 
HETATM    3  C   UNL     1      -3.522   4.399   0.000  1.00  0.00     0.026 A 
HETATM    4  C   UNL     1      -0.924   2.900   0.000  1.00  0.00    -0.027 A 
HETATM    5  C   UNL     1      -3.522   2.900   0.000  1.00  0.00     0.009 A 
HETATM    6  C   UNL     1      -2.223   2.150   0.000  1.00  0.00     0.024 A 
HETATM    7  C   UNL     1      -2.223   6.649   0.000  1.00  0.00     0.176 A 
HETATM    8  C   UNL     1       0.375   2.150   0.000  1.00  0.00     0.028 C 
HETATM    9  N   UNL     1       0.375   5.149   0.000  1.00  0.00    -0.207 NA
HETATM   10  C   UNL     1       0.375   6.649   0.000  1.00  0.00     0.270 A 
HETATM   11  O   UNL     1      -0.924   7.399   0.000  1.00  0.00    -0.296 OA
ENDROOT
BRANCH  10  12
HETATM   12  N   UNL     1       1.674   7.399   0.000  1.00  0.00    -0.214 NA
BRANCH  12  13
HETATM   13  C   UNL     1       1.674   8.899   0.000  1.00  0.00     0.041 A 
HETATM   14  C   UNL     1       0.375   9.649   0.000  1.00  0.00     0.043 A 
HETATM   15  C   UNL     1       0.375  11.149   0.000  1.00  0.00     0.024 A 
HETATM   16  C   UNL     1       1.674  11.899   0.000  1.00  0.00     0.132 A 
HETATM   17  C   UNL     1       2.973  11.149   0.000  1.00  0.00     0.024 A 
HETATM   18  C   UNL     1       2.973   9.649   0.000  1.00  0.00     0.043 A 
BRANCH  16  19
HETATM   19  S   UNL     1       1.674  13.399   0.000  1.00  0.00     0.281 S 
HETATM   20  O   UNL     1       3.174  13.399   0.000  1.00  0.00    -0.201 OA
HETATM   21  O   UNL     1       0.174  13.399   0.000  1.00  0.00    -0.201 OA
HETATM   22  N   UNL     1       1.674  14.899   0.000  1.00  0.00    -0.047 N 
ENDBRANCH  16  19
ENDBRANCH  12  13
ENDBRANCH  10  12
TORSDOF 3
