REMARK  4 active torsions:
REMARK  status: ('A' for Active; 'I' for Inactive)
REMARK    1  A    between atoms: C_3  and  N_13 
REMARK    2  A    between atoms: C_11  and  C_17 
REMARK    3  A    between atoms: N_13  and  C_14 
REMARK    4  A    between atoms: C_14  and  N_16 
REMARK       I    between atoms: N_16  and  C_17 
ROOT
HETATM    1  C   UNL     1       0.761   7.926   0.000  1.00  0.00     0.222 C 
HETATM    2  S   UNL     1      -0.537   8.676   0.000  1.00  0.00    -0.037 SA
ENDROOT
BRANCH   1   3
HETATM    3  N   UNL     1       0.761   6.426   0.000  1.00  0.00    -0.226 NA
BRANCH   3   4
HETATM    4  C   UNL     1      -0.537   5.676   0.000  1.00  0.00     0.042 A 
HETATM    5  C   UNL     1      -1.837   6.426   0.000  1.00  0.00     0.042 A 
HETATM    6  C   UNL     1      -3.136   5.676   0.000  1.00  0.00     0.009 A 
HETATM    7  C   UNL     1      -3.136   4.176   0.000  1.00  0.00     0.034 A 
HETATM    8  C   UNL     1      -1.837   3.426   0.000  1.00  0.00     0.158 A 
HETATM    9  C   UNL     1      -0.537   4.176   0.000  1.00  0.00     0.074 A 
HETATM   10  O   UNL     1      -1.837   1.926   0.000  1.00  0.00    -0.223 OA
ENDBRANCH   3   4
ENDBRANCH   1   3
BRANCH   1  11
HETATM   11  N   UNL     1       2.061   8.676   0.000  1.00  0.00    -0.190 NA
HETATM   12  C   UNL     1       2.061  10.176   0.000  1.00  0.00     0.233 C 
HETATM   13  O   UNL     1       0.761  10.926   0.000  1.00  0.00    -0.167 OA
BRANCH  12  14
HETATM   14  C   UNL     1       3.360  10.926   0.000  1.00  0.00     0.115 A 
HETATM   15  O   UNL     1       3.516  12.418   0.000  1.00  0.00    -0.331 OA
HETATM   16  C   UNL     1       4.984  12.730   0.000  1.00  0.00     0.149 A 
HETATM   17  C   UNL     1       5.734  11.431   0.000  1.00  0.00     0.040 A 
HETATM   18  C   UNL     1       4.730  10.316   0.000  1.00  0.00     0.057 A 
ENDBRANCH  12  14
ENDBRANCH   1  11
TORSDOF 4
