REMARK  4 active torsions:
REMARK  status: ('A' for Active; 'I' for Inactive)
REMARK    1  A    between atoms: C_4  and  N_17 
REMARK    2  A    between atoms: C_5  and  N_16 
REMARK    3  A    between atoms: C_12  and  N_16 
REMARK    4  A    between atoms: C_12  and  N_17 
ROOT
HETATM    1  C   UNL     1      -6.649   0.375   0.000  1.00  0.00     0.224 C 
HETATM    2  S   UNL     1      -5.899   1.674   0.000  1.00  0.00    -0.037 SA
ENDROOT
BRANCH   1   3
HETATM    3  N   UNL     1      -8.149   0.375   0.000  1.00  0.00    -0.199 NA
BRANCH   3   4
HETATM    4  C   UNL     1      -8.899   1.674   0.000  1.00  0.00     0.152 A 
HETATM    5  N   UNL     1      -8.149   2.973   0.000  1.00  0.00    -0.253 NA
HETATM    6  C   UNL     1      -8.899   4.272   0.000  1.00  0.00     0.128 A 
HETATM    7  C   UNL     1     -10.399   4.272   0.000  1.00  0.00     0.031 A 
HETATM    8  C   UNL     1     -11.149   2.973   0.000  1.00  0.00     0.027 A 
HETATM    9  C   UNL     1     -10.399   1.674   0.000  1.00  0.00    -0.008 A 
HETATM   10  C   UNL     1     -11.149   0.375   0.000  1.00  0.00     0.029 C 
ENDBRANCH   3   4
ENDBRANCH   1   3
BRANCH   1  11
HETATM   11  N   UNL     1      -5.899  -0.924   0.000  1.00  0.00    -0.199 NA
BRANCH  11  12
HETATM   12  C   UNL     1      -4.399  -0.924   0.000  1.00  0.00     0.152 A 
HETATM   13  N   UNL     1      -3.650   0.375   0.000  1.00  0.00    -0.253 NA
HETATM   14  C   UNL     1      -2.150   0.375   0.000  1.00  0.00     0.128 A 
HETATM   15  C   UNL     1      -1.399  -0.924   0.000  1.00  0.00     0.031 A 
HETATM   16  C   UNL     1      -2.150  -2.223   0.000  1.00  0.00     0.027 A 
HETATM   17  C   UNL     1      -3.650  -2.223   0.000  1.00  0.00    -0.008 A 
HETATM   18  C   UNL     1      -4.399  -3.522   0.000  1.00  0.00     0.029 C 
ENDBRANCH  11  12
ENDBRANCH   1  11
TORSDOF 4
