REMARK  3 active torsions:
REMARK  status: ('A' for Active; 'I' for Inactive)
REMARK    1  A    between atoms: C_2  and  O_5 
REMARK    2  A    between atoms: N_4  and  C_8 
REMARK    3  A    between atoms: O_5  and  C_6 
ROOT
HETATM    1  C   UNL     1      -5.561  -2.287   0.000  1.00  0.00     0.129 A 
HETATM    2  C   UNL     1      -4.500  -3.348   0.000  1.00  0.00     0.164 A 
HETATM    3  C   UNL     1      -5.561  -4.409   0.000  1.00  0.00     0.129 A 
HETATM    4  N   UNL     1      -6.621  -3.348   0.000  1.00  0.00    -0.368 N 
ENDROOT
BRANCH   2   5
HETATM    5  O   UNL     1      -3.000  -3.348   0.000  1.00  0.00    -0.298 OA
BRANCH   5   6
HETATM    6  C   UNL     1      -2.250  -2.049   0.000  1.00  0.00     0.580 C 
HETATM    7  O   UNL     1      -3.000  -0.750   0.000  1.00  0.00    -0.151 OA
HETATM    8  N   UNL     1      -0.750  -2.049   0.000  1.00  0.00     0.688 N 
ENDBRANCH   5   6
ENDBRANCH   2   5
BRANCH   4   9
HETATM    9  C   UNL     1      -8.121  -3.348   0.000  1.00  0.00     0.061 C 
HETATM   10  C   UNL     1      -8.121  -1.848   0.000  1.00  0.00     0.022 C 
HETATM   11  C   UNL     1      -9.621  -3.348   0.000  1.00  0.00     0.022 C 
HETATM   12  C   UNL     1      -8.121  -4.848   0.000  1.00  0.00     0.022 C 
ENDBRANCH   4   9
TORSDOF 3
