REMARK  2 active torsions:
REMARK  status: ('A' for Active; 'I' for Inactive)
REMARK    1  A    between atoms: C_2  and  N_17 
REMARK    2  A    between atoms: C_8  and  N_10 
ROOT
HETATM    1  N   UNL     1       3.287   4.775   0.000  1.00  0.00    -0.100 NA
HETATM    2  C   UNL     1       3.000   2.049   0.000  1.00  0.00     0.126 A 
HETATM    3  C   UNL     1       3.750   3.348   0.000  1.00  0.00     0.149 A 
HETATM    4  C   UNL     1       3.750   0.750   0.000  1.00  0.00     0.058 A 
HETATM    5  O   UNL     1       4.500   5.656   0.000  1.00  0.00    -0.100 OA
HETATM    6  C   UNL     1       5.250   0.750   0.000  1.00  0.00     0.052 A 
HETATM    7  C   UNL     1       5.250   3.348   0.000  1.00  0.00     0.149 A 
HETATM    8  C   UNL     1       6.000   2.049   0.000  1.00  0.00     0.056 A 
HETATM    9  N   UNL     1       5.713   4.775   0.000  1.00  0.00    -0.060 N 
HETATM   10  O   UNL     1       7.140   5.238   0.000  1.00  0.00    -0.055 OA
ENDROOT
BRANCH   8  11
HETATM   11  N   UNL     1       7.500   2.049   0.000  1.00  0.00    -0.346 N 
HETATM   12  C   UNL     1       8.250   3.348   0.000  1.00  0.00     0.125 A 
HETATM   13  C   UNL     1       9.750   3.348   0.000  1.00  0.00     0.122 A 
HETATM   14  N   UNL     1      10.500   2.049   0.000  1.00  0.00    -0.364 N 
HETATM   15  C   UNL     1       9.750   0.750   0.000  1.00  0.00     0.122 A 
HETATM   16  C   UNL     1      12.000   2.049   0.000  1.00  0.00     0.121 C 
HETATM   17  C   UNL     1       8.250   0.750   0.000  1.00  0.00     0.125 A 
ENDBRANCH   8  11
BRANCH   2  18
HETATM   18  N   UNL     1       1.500   2.049   0.000  1.00  0.00    -0.116 N 
HETATM   19  O   UNL     1       0.750   3.348   0.000  1.00  0.00    -0.532 OA
HETATM   20  O   UNL     1       0.750   0.750   0.000  1.00  0.00    -0.532 OA
ENDBRANCH   2  18
TORSDOF 2
