REMARK  2 active torsions:
REMARK  status: ('A' for Active; 'I' for Inactive)
REMARK    1  A    between atoms: O_4  and  C_14 
REMARK    2  A    between atoms: O_4  and  C_19 
ROOT
HETATM    1 CL   UNL     1      -0.380   0.990   0.000  1.00  0.00    -0.086 Cl
HETATM    2  S   UNL     1      -0.652   6.001   0.000  1.00  0.00    -0.063 SA
HETATM    3  N   UNL     1       0.775   4.038   0.000  1.00  0.00    -0.233 NA
HETATM    4  C   UNL     1      -3.025   4.631   0.000  1.00  0.00     0.035 A 
HETATM    5  C   UNL     1      -3.635   3.260   0.000  1.00  0.00     0.011 A 
HETATM    6  C   UNL     1      -1.533   4.788   0.000  1.00  0.00     0.025 A 
HETATM    7  C   UNL     1      -2.754   2.047   0.000  1.00  0.00     0.040 A 
HETATM    8  C   UNL     1      -0.652   3.574   0.000  1.00  0.00     0.088 A 
HETATM    9  C   UNL     1      -1.262   2.204   0.000  1.00  0.00     0.053 A 
HETATM   10  C   UNL     1       0.775   5.538   0.000  1.00  0.00     0.276 A 
ENDROOT
BRANCH  10  11
HETATM   11  O   UNL     1       1.988   6.419   0.000  1.00  0.00    -0.329 OA
BRANCH  11  12
HETATM   12  C   UNL     1       1.832   7.911   0.000  1.00  0.00     0.124 A 
HETATM   13  C   UNL     1       0.461   8.521   0.000  1.00  0.00     0.068 A 
HETATM   14  C   UNL     1       0.304  10.013   0.000  1.00  0.00     0.044 A 
HETATM   15 CL   UNL     1      -1.066  10.623   0.000  1.00  0.00    -0.086 Cl
HETATM   16  C   UNL     1       1.518  10.895   0.000  1.00  0.00     0.042 A 
HETATM   17 CL   UNL     1       1.361  12.386   0.000  1.00  0.00    -0.086 Cl
HETATM   18  C   UNL     1       2.888  10.284   0.000  1.00  0.00     0.041 A 
HETATM   19  C   UNL     1       3.045   8.793   0.000  1.00  0.00     0.036 A 
ENDBRANCH  11  12
ENDBRANCH  10  11
TORSDOF 2
