REMARK  1 active torsions:
REMARK  status: ('A' for Active; 'I' for Inactive)
REMARK    1  A    between atoms: C_5  and  N_14 
ROOT
HETATM    1  O   UNL     1      -1.632  -2.537   0.000  1.00  0.00    -0.303 OA
HETATM    2  O   UNL     1      -1.632  -4.963   0.000  1.00  0.00    -0.298 OA
HETATM    3  C   UNL     1      -4.357  -2.250   0.000  1.00  0.00     0.103 A 
HETATM    4  C   UNL     1      -3.058  -3.000   0.000  1.00  0.00     0.105 A 
HETATM    5  C   UNL     1      -5.656  -3.000   0.000  1.00  0.00     0.109 A 
HETATM    6  C   UNL     1      -3.058  -4.500   0.000  1.00  0.00     0.137 A 
HETATM    7  C   UNL     1      -5.656  -4.500   0.000  1.00  0.00     0.021 A 
HETATM    8  C   UNL     1      -4.357  -5.250   0.000  1.00  0.00     0.118 A 
HETATM    9  C   UNL     1      -0.750  -3.750   0.000  1.00  0.00     0.304 A 
HETATM   10  C   UNL     1      -6.955  -6.750   0.000  1.00  0.00     0.070 A 
HETATM   11  C   UNL     1      -5.656  -7.500   0.000  1.00  0.00     0.274 A 
HETATM   12  O   UNL     1      -5.656  -9.000   0.000  1.00  0.00    -0.190 OA
HETATM   13  O   UNL     1      -4.357  -6.750   0.000  1.00  0.00    -0.302 OA
HETATM   14  C   UNL     1      -6.955  -5.250   0.000  1.00  0.00     0.035 A 
ENDROOT
BRANCH   5  15
HETATM   15  N   UNL     1      -6.955  -2.250   0.000  1.00  0.00    -0.118 N 
HETATM   16  O   UNL     1      -8.254  -3.000   0.000  1.00  0.00    -0.532 OA
HETATM   17  O   UNL     1      -6.955  -0.750   0.000  1.00  0.00    -0.532 OA
ENDBRANCH   5  15
TORSDOF 1
