REMARK  3 active torsions:
REMARK  status: ('A' for Active; 'I' for Inactive)
REMARK    1  A    between atoms: C_3  and  N_18 
REMARK    2  A    between atoms: C_9  and  C_16 
REMARK    3  A    between atoms: C_12  and  N_13 
REMARK       I    between atoms: C_16  and  N_18 
ROOT
HETATM    1  C   UNL     1       0.924   7.399   0.000  1.00  0.00     0.026 A 
HETATM    2  C   UNL     1      -0.375   6.649   0.000  1.00  0.00     0.011 A 
HETATM    3  C   UNL     1       2.223   6.649   0.000  1.00  0.00     0.005 A 
HETATM    4  C   UNL     1      -0.375   5.149   0.000  1.00  0.00     0.046 A 
HETATM    5  C   UNL     1       2.223   5.149   0.000  1.00  0.00     0.071 A 
HETATM    6  C   UNL     1       0.924   4.399   0.000  1.00  0.00     0.086 A 
ENDROOT
BRANCH   3   7
HETATM    7  C   UNL     1       3.522   7.399   0.000  1.00  0.00     0.205 C 
HETATM    8  O   UNL     1       3.522   8.899   0.000  1.00  0.00    -0.170 OA
HETATM    9  N   UNL     1       4.821   6.649   0.000  1.00  0.00    -0.227 NA
BRANCH   9  10
HETATM   10  C   UNL     1       6.120   7.399   0.000  1.00  0.00     0.063 A 
HETATM   11  C   UNL     1       6.120   8.899   0.000  1.00  0.00     0.161 A 
HETATM   12  N   UNL     1       7.419   9.649   0.000  1.00  0.00    -0.289 NA
HETATM   13  C   UNL     1       8.718   8.899   0.000  1.00  0.00     0.121 A 
HETATM   14  C   UNL     1       8.718   7.399   0.000  1.00  0.00     0.032 A 
HETATM   15  C   UNL     1       7.419   6.649   0.000  1.00  0.00     0.045 A 
ENDBRANCH   9  10
ENDBRANCH   3   7
BRANCH   6  16
HETATM   16  N   UNL     1       0.924   2.900   0.000  1.00  0.00    -0.122 N 
HETATM   17  O   UNL     1      -0.375   2.150   0.000  1.00  0.00    -0.532 OA
HETATM   18  O   UNL     1       2.223   2.150   0.000  1.00  0.00    -0.532 OA
ENDBRANCH   6  16
TORSDOF 3
