REMARK  7 active torsions:
REMARK  status: ('A' for Active; 'I' for Inactive)
REMARK    1  A    between atoms: O_5  and  C_10 
REMARK    2  A    between atoms: O_5  and  C_23 
REMARK    3  A    between atoms: C_7  and  C_21 
REMARK    4  A    between atoms: C_13  and  N_24 
REMARK    5  A    between atoms: C_15  and  N_19 
REMARK       I    between atoms: C_16  and  N_19 
REMARK    6  A    between atoms: C_21  and  C_22 
REMARK    7  A    between atoms: C_22  and  C_23 
ROOT
HETATM    1  N   UNL     1     -11.316  -8.899   0.000  1.00  0.00    -0.035 NA
HETATM    2  N   UNL     1     -10.017 -11.149   0.000  1.00  0.00    -0.190 N 
HETATM    3  O   UNL     1     -10.017  -6.649   0.000  1.00  0.00    -0.169 OA
HETATM    4  H   UNL     1     -10.017 -12.649   0.000  1.00  0.00     0.184 HD
HETATM    5  C   UNL     1     -10.017  -8.149   0.000  1.00  0.00     0.227 A 
HETATM    6  C   UNL     1      -8.718  -8.899   0.000  1.00  0.00     0.034 A 
HETATM    7  C   UNL     1      -8.718 -10.399   0.000  1.00  0.00     0.050 A 
HETATM    8  C   UNL     1     -11.316 -10.399   0.000  1.00  0.00     0.731 A 
HETATM    9  C   UNL     1      -7.419 -11.149   0.000  1.00  0.00     0.050 C 
ENDROOT
BRANCH   6  10
HETATM   10  C   UNL     1      -7.419  -8.149   0.000  1.00  0.00     0.034 C 
BRANCH  10  11
HETATM   11  C   UNL     1      -7.419  -6.649   0.000  1.00  0.00     0.037 C 
BRANCH  11  12
HETATM   12  C   UNL     1      -6.120  -5.899   0.000  1.00  0.00     0.143 C 
BRANCH  12  13
HETATM   13  O   UNL     1      -4.821  -6.649   0.000  1.00  0.00    -0.357 OA
BRANCH  13  14
HETATM   14  C   UNL     1      -3.522  -5.899   0.000  1.00  0.00     0.116 A 
HETATM   15  C   UNL     1      -3.522  -4.399   0.000  1.00  0.00     0.036 A 
HETATM   16  C   UNL     1      -2.223  -3.650   0.000  1.00  0.00     0.048 A 
HETATM   17  C   UNL     1      -0.924  -4.399   0.000  1.00  0.00     0.082 A 
HETATM   18  C   UNL     1      -0.924  -5.899   0.000  1.00  0.00     0.048 A 
HETATM   19  C   UNL     1      -2.223  -6.649   0.000  1.00  0.00     0.036 A 
BRANCH  17  20
HETATM   20  N   UNL     1       0.375  -3.650   0.000  1.00  0.00    -0.122 N 
HETATM   21  O   UNL     1       0.375  -2.150   0.000  1.00  0.00    -0.532 OA
HETATM   22  O   UNL     1       1.674  -4.399   0.000  1.00  0.00    -0.532 OA
ENDBRANCH  17  20
ENDBRANCH  13  14
ENDBRANCH  12  13
ENDBRANCH  11  12
ENDBRANCH  10  11
ENDBRANCH   6  10
BRANCH   8  23
HETATM   23  N   UNL     1     -12.615 -11.149   0.000  1.00  0.00    -0.038 NA
HETATM   24  C   UNL     1     -13.914 -10.399   0.000  1.00  0.00     0.208 C 
HETATM   25  O   UNL     1     -13.914  -8.899   0.000  1.00  0.00    -0.173 OA
HETATM   26  C   UNL     1     -15.213 -11.150   0.000  1.00  0.00     0.084 C 
ENDBRANCH   8  23
TORSDOF 7
