REMARK  6 active torsions:
REMARK  status: ('A' for Active; 'I' for Inactive)
REMARK    1  A    between atoms: O_1  and  C_5 
REMARK    2  A    between atoms: O_1  and  C_12 
REMARK    3  A    between atoms: C_6  and  N_9 
REMARK    4  A    between atoms: C_12  and  C_13 
REMARK    5  A    between atoms: C_13  and  C_14 
REMARK    6  A    between atoms: C_14  and  N_15 
REMARK       I    between atoms: N_15  and  C_16 
ROOT
HETATM    1 CL   UNL     1      -7.245  -3.750   0.000  1.00  0.00    -0.085 Cl
HETATM    2  C   UNL     1      -9.843  -0.750   0.000  1.00  0.00     0.058 A 
HETATM    3  C   UNL     1     -11.142  -1.500   0.000  1.00  0.00     0.053 A 
HETATM    4  C   UNL     1      -8.544  -1.500   0.000  1.00  0.00     0.079 A 
HETATM    5  C   UNL     1     -11.142  -3.000   0.000  1.00  0.00     0.088 A 
HETATM    6  C   UNL     1      -8.544  -3.000   0.000  1.00  0.00     0.059 A 
HETATM    7  C   UNL     1      -9.843  -3.750   0.000  1.00  0.00     0.085 A 
ENDROOT
BRANCH   4   8
HETATM    8  O   UNL     1      -7.245  -0.750   0.000  1.00  0.00    -0.334 OA
BRANCH   8   9
HETATM    9  C   UNL     1      -5.946  -1.500   0.000  1.00  0.00     0.150 C 
BRANCH   9  10
HETATM   10  C   UNL     1      -4.647  -0.750   0.000  1.00  0.00     0.059 C 
BRANCH  10  11
HETATM   11  C   UNL     1      -3.348  -1.500   0.000  1.00  0.00     0.130 C 
BRANCH  11  12
HETATM   12  N   UNL     1      -3.348  -3.000   0.000  1.00  0.00    -0.250 NA
HETATM   13  C   UNL     1      -2.049  -3.750   0.000  1.00  0.00     0.186 C 
HETATM   14  O   UNL     1      -0.750  -3.000   0.000  1.00  0.00    -0.174 OA
HETATM   15  C   UNL     1      -2.049  -5.250   0.000  1.00  0.00     0.083 C 
ENDBRANCH  11  12
ENDBRANCH  10  11
ENDBRANCH   9  10
ENDBRANCH   8   9
ENDBRANCH   4   8
BRANCH   5  16
HETATM   16  N   UNL     1     -12.441  -3.750   0.000  1.00  0.00    -0.122 N 
HETATM   17  O   UNL     1     -13.740  -3.000   0.000  1.00  0.00    -0.532 OA
HETATM   18  O   UNL     1     -12.441  -5.250   0.000  1.00  0.00    -0.532 OA
ENDBRANCH   5  16
TORSDOF 6
