REMARK  1 active torsions:
REMARK  status: ('A' for Active; 'I' for Inactive)
REMARK    1  A    between atoms: C_5  and  N_18 
ROOT
HETATM    1  C   UNL     1       6.552   0.515   0.000  1.00  0.00     0.013 A 
HETATM    2  C   UNL     1       6.292  -0.963   0.000  1.00  0.00     0.044 A 
HETATM    3  C   UNL     1       4.882  -1.476   0.000  1.00  0.00     0.043 A 
HETATM    4  C   UNL     1       3.733  -0.511   0.000  1.00  0.00     0.019 A 
HETATM    5  C   UNL     1       3.994   0.966   0.000  1.00  0.00     0.102 A 
HETATM    6  C   UNL     1       5.403   1.479   0.000  1.00  0.00     0.051 A 
HETATM    7  C   UNL     1       2.324  -1.024   0.000  1.00  0.00     0.094 A 
HETATM    8  S   UNL     1       2.324  -2.525   0.000  1.00  0.00    -0.072 SA
HETATM    9  N   UNL     1       3.623  -4.774   0.000  1.00  0.00    -0.195 NA
HETATM   10  C   UNL     1       4.922  -5.524   0.000  1.00  0.00     0.235 A 
HETATM   11  C   UNL     1       6.221  -4.774   0.000  1.00  0.00     0.156 A 
HETATM   12  C   UNL     1       6.221  -3.275   0.000  1.00  0.00     0.168 A 
HETATM   13  N   UNL     1       4.922  -2.525   0.000  1.00  0.00    -0.275 N 
HETATM   14  C   UNL     1       3.623  -3.275   0.000  1.00  0.00     0.178 A 
HETATM   15  N   UNL     1       7.647  -5.238   0.000  1.00  0.00    -0.238 NA
HETATM   16  C   UNL     1       8.529  -4.024   0.000  1.00  0.00     0.253 A 
HETATM   17  N   UNL     1       7.647  -2.811   0.000  1.00  0.00    -0.226 NA
HETATM   18  O   UNL     1       4.922  -7.024   0.000  1.00  0.00    -0.167 OA
ENDROOT
BRANCH   5  19
HETATM   19  N   UNL     1       2.845   1.930   0.000  1.00  0.00    -0.118 N 
HETATM   20  O   UNL     1       3.105   3.407   0.000  1.00  0.00    -0.532 OA
HETATM   21  O   UNL     1       1.435   1.417   0.000  1.00  0.00    -0.532 OA
ENDBRANCH   5  19
TORSDOF 1
