REMARK  8 active torsions:
REMARK  status: ('A' for Active; 'I' for Inactive)
REMARK    1  A    between atoms: O_1  and  C_5 
REMARK    2  A    between atoms: O_1  and  C_19 
REMARK    3  A    between atoms: O_2  and  C_10 
REMARK    4  A    between atoms: O_2  and  C_22 
REMARK    5  A    between atoms: C_6  and  N_15 
REMARK    6  A    between atoms: C_19  and  C_20 
REMARK    7  A    between atoms: C_20  and  C_21 
REMARK    8  A    between atoms: C_21  and  C_22 
ROOT
HETATM    1  C   UNL     1       8.169  -2.150   0.000  1.00  0.00     0.031 A 
HETATM    2  C   UNL     1       9.468  -1.399   0.000  1.00  0.00     0.115 A 
HETATM    3  C   UNL     1       6.870  -1.399   0.000  1.00  0.00     0.017 A 
HETATM    4  C   UNL     1       9.468   0.101   0.000  1.00  0.00     0.031 A 
HETATM    5  C   UNL     1       6.870   0.101   0.000  1.00  0.00     0.077 A 
HETATM    6  C   UNL     1       8.169   0.851   0.000  1.00  0.00     0.017 A 
HETATM    7  C   UNL     1       5.571   0.851   0.000  1.00  0.00    -0.007 C 
HETATM    8  N   UNL     1       4.272   1.601   0.000  1.00  0.00    -0.101 N 
ENDROOT
BRANCH   2   9
HETATM    9  O   UNL     1      10.767  -2.150   0.000  1.00  0.00    -0.357 OA
BRANCH   9  10
HETATM   10  C   UNL     1      10.767  -3.650   0.000  1.00  0.00     0.142 C 
BRANCH  10  11
HETATM   11  C   UNL     1      12.066  -4.399   0.000  1.00  0.00     0.035 C 
BRANCH  11  12
HETATM   12  C   UNL     1      12.066  -5.899   0.000  1.00  0.00     0.035 C 
BRANCH  12  13
HETATM   13  C   UNL     1      13.365  -6.649   0.000  1.00  0.00     0.142 C 
BRANCH  13  14
HETATM   14  O   UNL     1      13.365  -8.149   0.000  1.00  0.00    -0.356 OA
BRANCH  14  15
HETATM   15  C   UNL     1      12.066  -8.899   0.000  1.00  0.00     0.120 A 
HETATM   16  C   UNL     1      10.767  -8.149   0.000  1.00  0.00     0.053 A 
HETATM   17  C   UNL     1       9.468  -8.899   0.000  1.00  0.00    -0.024 A 
HETATM   18  C   UNL     1       9.468 -10.399   0.000  1.00  0.00     0.097 A 
HETATM   19  C   UNL     1       8.169  -8.149   0.000  1.00  0.00     0.028 C 
HETATM   20  C   UNL     1      10.767 -11.149   0.000  1.00  0.00     0.052 A 
HETATM   21  C   UNL     1      12.066 -10.399   0.000  1.00  0.00     0.036 A 
BRANCH  18  22
HETATM   22  N   UNL     1       8.169 -11.149   0.000  1.00  0.00    -0.119 N 
HETATM   23  O   UNL     1       6.870 -10.399   0.000  1.00  0.00    -0.532 OA
HETATM   24  O   UNL     1       8.169 -12.649   0.000  1.00  0.00    -0.532 OA
ENDBRANCH  18  22
ENDBRANCH  14  15
ENDBRANCH  13  14
ENDBRANCH  12  13
ENDBRANCH  11  12
ENDBRANCH  10  11
ENDBRANCH   9  10
ENDBRANCH   2   9
TORSDOF 8
