REMARK  3 active torsions:
REMARK  status: ('A' for Active; 'I' for Inactive)
REMARK    1  A    between atoms: C_2  and  C_6 
REMARK    2  A    between atoms: C_8  and  O_18 
REMARK    3  A    between atoms: C_11  and  O_16 
ROOT
HETATM    1  N   UNL     1       2.049   3.739   0.000  1.00  0.00    -0.367 N 
HETATM    2  C   UNL     1       4.647   5.239   0.000  1.00  0.00     0.070 A 
HETATM    3  C   UNL     1       3.348   5.989   0.000  1.00  0.00     0.037 A 
HETATM    4  C   UNL     1       2.049   5.239   0.000  1.00  0.00     0.098 A 
HETATM    5  C   UNL     1       4.647   3.739   0.000  1.00  0.00     0.037 A 
HETATM    6  C   UNL     1       3.348   2.989   0.000  1.00  0.00     0.098 A 
HETATM    7  C   UNL     1       0.750   2.989   0.000  1.00  0.00     0.121 C 
HETATM    8  C   UNL     1       5.160   6.649   0.000  1.00  0.00    -0.007 C 
HETATM    9  N   UNL     1       5.673   8.058   0.000  1.00  0.00    -0.101 N 
ENDROOT
BRANCH   2  10
HETATM   10  C   UNL     1       6.124   4.979   0.000  1.00  0.00     0.017 A 
HETATM   11  C   UNL     1       6.637   3.569   0.000  1.00  0.00     0.031 A 
HETATM   12  C   UNL     1       8.115   3.309   0.000  1.00  0.00     0.118 A 
HETATM   13  C   UNL     1       9.079   4.458   0.000  1.00  0.00     0.059 A 
HETATM   14  C   UNL     1       8.566   5.867   0.000  1.00  0.00     0.118 A 
HETATM   15  C   UNL     1       7.088   6.128   0.000  1.00  0.00     0.031 A 
BRANCH  12  16
HETATM   16  O   UNL     1       8.628   1.899   0.000  1.00  0.00    -0.354 OA
HETATM   17  C   UNL     1       7.663   0.750   0.000  1.00  0.00     0.174 C 
ENDBRANCH  12  16
BRANCH  14  18
HETATM   18  O   UNL     1       9.530   7.016   0.000  1.00  0.00    -0.354 OA
HETATM   19  C   UNL     1      11.007   6.756   0.000  1.00  0.00     0.174 C 
ENDBRANCH  14  18
ENDBRANCH   2  10
TORSDOF 3
