REMARK  2 active torsions:
REMARK  status: ('A' for Active; 'I' for Inactive)
REMARK    1  A    between atoms: C_7  and  N_14 
REMARK    2  A    between atoms: C_11  and  N_17 
REMARK       I    between atoms: N_14  and  C_15 
REMARK       I    between atoms: C_15  and  N_17 
ROOT
HETATM    1  N   UNL     1      -1.009  -9.247   0.000  1.00  0.00    -0.205 NA
HETATM    2  C   UNL     1      -1.009  -7.747   0.000  1.00  0.00     0.301 C 
HETATM    3  O   UNL     1      -2.308  -6.997   0.000  1.00  0.00    -0.147 OA
HETATM    4  N   UNL     1       0.290  -6.997   0.000  1.00  0.00    -0.186 NA
ENDROOT
BRANCH   1   5
HETATM    5  C   UNL     1      -2.308  -9.997   0.000  1.00  0.00     0.092 A 
HETATM    6  C   UNL     1      -3.607  -9.247   0.000  1.00  0.00     0.132 A 
HETATM    7  F   UNL     1      -3.607  -7.747   0.000  1.00  0.00    -0.208 F 
HETATM    8  C   UNL     1      -4.906  -9.997   0.000  1.00  0.00     0.065 A 
HETATM    9  C   UNL     1      -4.906 -11.497   0.000  1.00  0.00     0.059 A 
HETATM   10  C   UNL     1      -3.607 -12.247   0.000  1.00  0.00     0.102 A 
HETATM   11  F   UNL     1      -3.607 -13.747   0.000  1.00  0.00    -0.213 F 
HETATM   12  C   UNL     1      -2.308 -11.497   0.000  1.00  0.00     0.100 A 
ENDBRANCH   1   5
BRANCH   4  13
HETATM   13  C   UNL     1       0.290  -5.497   0.000  1.00  0.00     0.172 A 
HETATM   14  N   UNL     1      -0.923  -4.616   0.000  1.00  0.00    -0.116 NA
HETATM   15  O   UNL     1      -0.460  -3.189   0.000  1.00  0.00    -0.238 OA
HETATM   16  C   UNL     1       1.040  -3.189   0.000  1.00  0.00     0.154 A 
HETATM   17  C   UNL     1       1.504  -4.616   0.000  1.00  0.00     0.101 A 
HETATM   18  C   UNL     1       1.922  -1.976   0.000  1.00  0.00     0.035 C 
ENDBRANCH   4  13
TORSDOF 2
