REMARK  4 active torsions:
REMARK  status: ('A' for Active; 'I' for Inactive)
REMARK    1  A    between atoms: N_1  and  N_2 
REMARK    2  A    between atoms: N_1  and  C_9 
REMARK    3  A    between atoms: C_17  and  N_27 
REMARK    4  A    between atoms: C_25  and  N_27 
ROOT
HETATM    1  N   UNL     1      -3.522   8.899   0.000  1.00  0.00    -0.131 N 
HETATM    2  C   UNL     1      -3.522   7.399   0.000  1.00  0.00     0.099 A 
HETATM    3  C   UNL     1      -4.821   6.649   0.000  1.00  0.00     0.049 A 
HETATM    4  C   UNL     1      -2.223   6.649   0.000  1.00  0.00     0.078 A 
HETATM    5  C   UNL     1      -4.821   5.149   0.000  1.00  0.00     0.007 A 
HETATM    6  C   UNL     1      -2.223   5.149   0.000  1.00  0.00     0.047 A 
HETATM    7  C   UNL     1      -3.522   4.399   0.000  1.00  0.00     0.006 A 
HETATM    8  C   UNL     1      -3.522   2.900   0.000  1.00  0.00     0.000 C 
HETATM    9  N   UNL     1      -0.924   7.399   0.000  1.00  0.00    -0.207 NA
HETATM   10  C   UNL     1      -0.924   8.899   0.000  1.00  0.00     0.294 A 
HETATM   11  O   UNL     1      -2.223   9.649   0.000  1.00  0.00    -0.172 OA
ENDROOT
BRANCH   1  12
HETATM   12  N   UNL     1      -4.821   9.649   0.000  1.00  0.00    -0.153 NA
BRANCH  12  13
HETATM   13  C   UNL     1      -4.821  11.149   0.000  1.00  0.00     0.059 A 
HETATM   14  C   UNL     1      -3.522  11.899   0.000  1.00  0.00     0.043 A 
HETATM   15  C   UNL     1      -3.522  13.399   0.000  1.00  0.00     0.006 A 
HETATM   16  C   UNL     1      -4.821  14.149   0.000  1.00  0.00     0.001 A 
HETATM   17  C   UNL     1      -6.120  13.399   0.000  1.00  0.00     0.006 A 
HETATM   18  C   UNL     1      -4.821  15.649   0.000  1.00  0.00     0.000 C 
HETATM   19  C   UNL     1      -6.120  11.899   0.000  1.00  0.00     0.043 A 
ENDBRANCH  12  13
ENDBRANCH   1  12
BRANCH  10  20
HETATM   20  N   UNL     1       0.375   9.649   0.000  1.00  0.00    -0.206 NA
BRANCH  20  21
HETATM   21  C   UNL     1       0.375  11.149   0.000  1.00  0.00     0.086 A 
HETATM   22  C   UNL     1      -0.924  11.899   0.000  1.00  0.00     0.048 A 
HETATM   23  C   UNL     1      -0.924  13.399   0.000  1.00  0.00     0.007 A 
HETATM   24  C   UNL     1       0.375  14.149   0.000  1.00  0.00     0.007 A 
HETATM   25  C   UNL     1       1.674  13.399   0.000  1.00  0.00     0.058 A 
HETATM   26  C   UNL     1       1.674  11.899   0.000  1.00  0.00     0.131 A 
HETATM   27  F   UNL     1       2.973  11.149   0.000  1.00  0.00    -0.208 F 
ENDBRANCH  20  21
ENDBRANCH  10  20
TORSDOF 4
