REMARK  2 active torsions:
REMARK  status: ('A' for Active; 'I' for Inactive)
REMARK    1  A    between atoms: C_6  and  N_18 
REMARK    2  A    between atoms: C_13  and  C_19 
REMARK       I    between atoms: N_18  and  C_19 
ROOT
HETATM    1  C   UNL     1      -8.718  -5.899   0.000  1.00  0.00     0.022 A 
HETATM    2  C   UNL     1     -10.017  -6.649   0.000  1.00  0.00     0.005 A 
HETATM    3  C   UNL     1      -7.419  -6.649   0.000  1.00  0.00    -0.046 A 
HETATM    4  C   UNL     1      -6.120  -5.899   0.000  1.00  0.00     0.063 A 
HETATM    5  C   UNL     1      -4.821  -6.649   0.000  1.00  0.00     0.043 A 
HETATM    6  C   UNL     1     -10.017  -8.149   0.000  1.00  0.00     0.005 A 
HETATM    7  C   UNL     1      -7.419  -8.149   0.000  1.00  0.00    -0.051 A 
HETATM    8  C   UNL     1      -4.821  -8.149   0.000  1.00  0.00     0.046 A 
HETATM    9  C   UNL     1      -8.718  -8.899   0.000  1.00  0.00     0.021 A 
HETATM   10  C   UNL     1      -6.120  -8.899   0.000  1.00  0.00     0.027 A 
ENDROOT
BRANCH   5  11
HETATM   11  N   UNL     1      -3.522  -5.899   0.000  1.00  0.00    -0.229 NA
HETATM   12  C   UNL     1      -3.522  -4.399   0.000  1.00  0.00     0.205 C 
HETATM   13  O   UNL     1      -4.821  -3.650   0.000  1.00  0.00    -0.170 OA
BRANCH  12  14
HETATM   14  C   UNL     1      -2.223  -3.650   0.000  1.00  0.00     0.006 A 
HETATM   15  C   UNL     1      -2.223  -2.150   0.000  1.00  0.00     0.026 A 
HETATM   16  C   UNL     1      -0.924  -1.399   0.000  1.00  0.00     0.011 A 
HETATM   17  C   UNL     1       0.375  -2.150   0.000  1.00  0.00     0.053 A 
HETATM   18  C   UNL     1       0.375  -3.650   0.000  1.00  0.00     0.099 A 
HETATM   19  F   UNL     1       1.674  -4.399   0.000  1.00  0.00    -0.213 F 
HETATM   20  C   UNL     1      -0.924  -4.399   0.000  1.00  0.00     0.078 A 
ENDBRANCH  12  14
ENDBRANCH   5  11
TORSDOF 2
