REMARK  4 active torsions:
REMARK  status: ('A' for Active; 'I' for Inactive)
REMARK    1  A    between atoms: C_3  and  C_19 
REMARK    2  A    between atoms: C_4  and  N_18 
REMARK    3  A    between atoms: C_7  and  N_21 
REMARK    4  A    between atoms: C_12  and  N_18 
REMARK       I    between atoms: C_19  and  N_21 
ROOT
HETATM    1  S   UNL     1      -1.200   6.119   0.000  1.00  0.00    -0.129 SA
HETATM    2  C   UNL     1       0.014   7.001   0.000  1.00  0.00     0.089 A 
HETATM    3  C   UNL     1       1.227   6.119   0.000  1.00  0.00     0.047 A 
HETATM    4  C   UNL     1       0.764   4.693   0.000  1.00  0.00     0.070 A 
HETATM    5  C   UNL     1      -0.736   4.693   0.000  1.00  0.00     0.103 A 
ENDROOT
BRANCH   3   6
HETATM    6  C   UNL     1       2.654   6.583   0.000  1.00  0.00     0.210 C 
HETATM    7  O   UNL     1       3.769   5.579   0.000  1.00  0.00    -0.170 OA
HETATM    8  N   UNL     1       2.966   8.050   0.000  1.00  0.00    -0.229 NA
BRANCH   8   9
HETATM    9  C   UNL     1       4.393   8.514   0.000  1.00  0.00     0.039 A 
HETATM   10  C   UNL     1       5.507   7.510   0.000  1.00  0.00     0.041 A 
HETATM   11  C   UNL     1       6.934   7.973   0.000  1.00  0.00     0.006 A 
HETATM   12  C   UNL     1       7.246   9.441   0.000  1.00  0.00     0.001 A 
HETATM   13  C   UNL     1       6.131  10.444   0.000  1.00  0.00     0.006 A 
HETATM   14  C   UNL     1       4.704   9.981   0.000  1.00  0.00     0.041 A 
ENDBRANCH   8   9
ENDBRANCH   3   6
BRANCH   4  15
HETATM   15  N   UNL     1       1.646   3.479   0.000  1.00  0.00    -0.258 NA
BRANCH  15  16
HETATM   16  C   UNL     1       1.036   2.109   0.000  1.00  0.00     0.036 A 
HETATM   17  C   UNL     1      -0.456   1.952   0.000  1.00  0.00     0.041 A 
HETATM   18  C   UNL     1      -1.066   0.582   0.000  1.00  0.00     0.006 A 
HETATM   19  C   UNL     1      -0.185  -0.632   0.000  1.00  0.00     0.001 A 
HETATM   20  C   UNL     1       1.307  -0.475   0.000  1.00  0.00     0.006 A 
HETATM   21  C   UNL     1       1.917   0.895   0.000  1.00  0.00     0.041 A 
ENDBRANCH  15  16
ENDBRANCH   4  15
TORSDOF 4
