REMARK  1 active torsions:
REMARK  status: ('A' for Active; 'I' for Inactive)
REMARK    1  A    between atoms: C_2  and  C_9 
ROOT
HETATM    1  C   UNL     1       2.049  -3.000   0.000  1.00  0.00    -0.046 A 
HETATM    2  C   UNL     1       3.348  -3.750   0.000  1.00  0.00    -0.009 A 
HETATM    3  C   UNL     1       0.750  -3.750   0.000  1.00  0.00     0.022 A 
HETATM    4  C   UNL     1       0.750  -5.250   0.000  1.00  0.00     0.005 A 
HETATM    5  C   UNL     1       3.348  -5.250   0.000  1.00  0.00     0.028 A 
HETATM    6  C   UNL     1       2.049  -6.000   0.000  1.00  0.00     0.005 A 
HETATM    7  C   UNL     1       2.049  -1.500   0.000  1.00  0.00     0.026 C 
HETATM    8  C   UNL     1       2.049  -7.500   0.000  1.00  0.00     0.000 C 
ENDROOT
BRANCH   2   9
HETATM    9  C   UNL     1       4.647  -3.000   0.000  1.00  0.00     0.104 A 
HETATM   10  O   UNL     1       4.647  -1.500   0.000  1.00  0.00    -0.197 OA
HETATM   11  O   UNL     1       5.946  -0.750   0.000  1.00  0.00    -0.185 OA
HETATM   12  C   UNL     1       7.245  -1.500   0.000  1.00  0.00     0.302 A 
HETATM   13  C   UNL     1       7.245  -3.000   0.000  1.00  0.00     0.074 A 
HETATM   14  O   UNL     1       8.544  -0.750   0.000  1.00  0.00    -0.187 OA
HETATM   15  C   UNL     1       5.946  -3.750   0.000  1.00  0.00     0.059 A 
ENDBRANCH   2   9
TORSDOF 1
