REMARK  2 active torsions:
REMARK  status: ('A' for Active; 'I' for Inactive)
REMARK    1  A    between atoms: C_10  and  N_17 
REMARK    2  A    between atoms: C_15  and  N_17 
ROOT
HETATM    1 CL   UNL     1      -3.607 -13.747   0.000  1.00  0.00    -0.091 Cl
HETATM    2  C   UNL     1      -3.607  -9.247   0.000  1.00  0.00     0.000 A 
HETATM    3  C   UNL     1      -2.308  -9.997   0.000  1.00  0.00     0.062 A 
HETATM    4  C   UNL     1      -4.906  -9.997   0.000  1.00  0.00     0.031 A 
HETATM    5  C   UNL     1      -4.906 -11.497   0.000  1.00  0.00     0.038 A 
HETATM    6  C   UNL     1      -2.308 -11.497   0.000  1.00  0.00     0.079 A 
HETATM    7  C   UNL     1      -3.607 -12.247   0.000  1.00  0.00     0.020 A 
HETATM    8  C   UNL     1      -3.607  -7.747   0.000  1.00  0.00     0.175 A 
HETATM    9  N   UNL     1      -1.009  -9.247   0.000  1.00  0.00    -0.210 NA
HETATM   10  C   UNL     1      -1.009  -7.747   0.000  1.00  0.00     0.271 A 
HETATM   11  O   UNL     1      -2.308  -6.997   0.000  1.00  0.00    -0.295 OA
ENDROOT
BRANCH  10  12
HETATM   12  N   UNL     1       0.290  -6.997   0.000  1.00  0.00    -0.188 NA
BRANCH  12  13
HETATM   13  C   UNL     1       0.290  -5.497   0.000  1.00  0.00     0.172 A 
HETATM   14  N   UNL     1      -0.923  -4.616   0.000  1.00  0.00    -0.116 NA
HETATM   15  O   UNL     1      -0.460  -3.189   0.000  1.00  0.00    -0.238 OA
HETATM   16  C   UNL     1       1.040  -3.189   0.000  1.00  0.00     0.154 A 
HETATM   17  C   UNL     1       1.504  -4.616   0.000  1.00  0.00     0.101 A 
HETATM   18  C   UNL     1       1.922  -1.976   0.000  1.00  0.00     0.035 C 
ENDBRANCH  12  13
ENDBRANCH  10  12
TORSDOF 2
