REMARK  6 active torsions:
REMARK  status: ('A' for Active; 'I' for Inactive)
REMARK    1  A    between atoms: O_1  and  C_9 
REMARK    2  A    between atoms: O_1  and  C_20 
REMARK    3  A    between atoms: C_4  and  N_17 
REMARK    4  A    between atoms: C_5  and  N_14 
REMARK    5  A    between atoms: C_6  and  O_18 
REMARK    6  A    between atoms: C_12  and  N_22 
REMARK       I    between atoms: N_17  and  C_20 
REMARK       I    between atoms: N_22  and  C_23 
ROOT
HETATM    1  N   UNL     1       6.221  -4.774   0.000  1.00  0.00    -0.201 NA
HETATM    2  C   UNL     1       7.520  -5.524   0.000  1.00  0.00     0.318 C 
HETATM    3  O   UNL     1       8.819  -4.774   0.000  1.00  0.00    -0.141 OA
ENDROOT
BRANCH   2   4
HETATM    4  O   UNL     1       7.520  -7.024   0.000  1.00  0.00    -0.297 OA
BRANCH   4   5
HETATM    5  C   UNL     1       8.819  -7.774   0.000  1.00  0.00     0.126 A 
HETATM    6  C   UNL     1      10.118  -7.024   0.000  1.00  0.00     0.036 A 
HETATM    7  C   UNL     1      11.417  -7.774   0.000  1.00  0.00     0.044 A 
HETATM    8  C   UNL     1      11.417  -9.274   0.000  1.00  0.00     0.039 A 
HETATM    9  C   UNL     1      10.118 -10.024   0.000  1.00  0.00     0.044 A 
HETATM   10  C   UNL     1       8.819  -9.274   0.000  1.00  0.00     0.036 A 
BRANCH   8  11
HETATM   11  N   UNL     1      12.716 -10.024   0.000  1.00  0.00    -0.232 NA
HETATM   12  C   UNL     1      14.015  -9.274   0.000  1.00  0.00     0.189 C 
HETATM   13  O   UNL     1      14.015  -7.774   0.000  1.00  0.00    -0.174 OA
HETATM   14  C   UNL     1      15.314 -10.024   0.000  1.00  0.00     0.083 C 
ENDBRANCH   8  11
ENDBRANCH   4   5
ENDBRANCH   2   4
BRANCH   1  15
HETATM   15  C   UNL     1       6.221  -3.275   0.000  1.00  0.00     0.082 A 
HETATM   16  C   UNL     1       7.520  -2.525   0.000  1.00  0.00     0.054 A 
HETATM   17  C   UNL     1       7.520  -1.024   0.000  1.00  0.00     0.053 A 
HETATM   18  C   UNL     1       6.221  -0.275   0.000  1.00  0.00     0.089 A 
HETATM   19  C   UNL     1       4.922  -1.024   0.000  1.00  0.00     0.098 A 
HETATM   20  C   UNL     1       4.922  -2.525   0.000  1.00  0.00     0.091 A 
BRANCH  18  21
HETATM   21  N   UNL     1       6.221   1.226   0.000  1.00  0.00    -0.122 N 
HETATM   22  O   UNL     1       7.520   1.976   0.000  1.00  0.00    -0.532 OA
HETATM   23  O   UNL     1       4.922   1.976   0.000  1.00  0.00    -0.532 OA
ENDBRANCH  18  21
BRANCH  20  24
HETATM   24  O   UNL     1       3.623  -3.275   0.000  1.00  0.00    -0.331 OA
HETATM   25  C   UNL     1       3.623  -4.774   0.000  1.00  0.00     0.181 C 
ENDBRANCH  20  24
ENDBRANCH   1  15
TORSDOF 6
