REMARK  2 active torsions:
REMARK  status: ('A' for Active; 'I' for Inactive)
REMARK    1  A    between atoms: C_10  and  C_20 
REMARK    2  A    between atoms: C_17  and  N_19 
REMARK       I    between atoms: N_19  and  C_20 
ROOT
HETATM    1 CL   UNL     1      -3.623 -13.774   0.000  1.00  0.00    -0.091 Cl
HETATM    2  C   UNL     1      -3.623  -9.274   0.000  1.00  0.00     0.101 A 
HETATM    3  C   UNL     1      -2.324 -10.024   0.000  1.00  0.00     0.085 A 
HETATM    4  C   UNL     1      -4.922 -10.024   0.000  1.00  0.00     0.059 A 
HETATM    5  C   UNL     1      -4.922 -11.524   0.000  1.00  0.00     0.041 A 
HETATM    6  C   UNL     1      -2.324 -11.524   0.000  1.00  0.00     0.081 A 
HETATM    7  C   UNL     1      -3.623 -12.274   0.000  1.00  0.00     0.020 A 
HETATM    8  O   UNL     1      -3.623  -7.774   0.000  1.00  0.00    -0.272 OA
HETATM    9  N   UNL     1      -1.024  -9.274   0.000  1.00  0.00    -0.222 NA
HETATM   10  C   UNL     1      -1.024  -7.774   0.000  1.00  0.00     0.218 A 
HETATM   11  S   UNL     1      -2.324  -7.024   0.000  1.00  0.00     0.077 SA
ENDROOT
BRANCH  10  12
HETATM   12  N   UNL     1       0.275  -7.024   0.000  1.00  0.00    -0.194 NA
HETATM   13  C   UNL     1       0.275  -5.524   0.000  1.00  0.00     0.207 C 
HETATM   14  O   UNL     1      -1.024  -4.774   0.000  1.00  0.00    -0.170 OA
BRANCH  13  15
HETATM   15  C   UNL     1       1.574  -4.774   0.000  1.00  0.00     0.004 A 
HETATM   16  C   UNL     1       1.574  -3.275   0.000  1.00  0.00     0.026 A 
HETATM   17  C   UNL     1       2.873  -2.525   0.000  1.00  0.00     0.009 A 
HETATM   18  C   UNL     1       4.172  -3.275   0.000  1.00  0.00     0.029 A 
HETATM   19  C   UNL     1       4.172  -4.774   0.000  1.00  0.00    -0.005 A 
HETATM   20 BR   UNL     1       5.471  -5.524   0.000  1.00  0.00    -0.058 Br
HETATM   21  C   UNL     1       2.873  -5.524   0.000  1.00  0.00     0.054 A 
ENDBRANCH  13  15
ENDBRANCH  10  12
TORSDOF 2
