REMARK  4 active torsions:
REMARK  status: ('A' for Active; 'I' for Inactive)
REMARK    1  A    between atoms: C_7  and  C_19 
REMARK    2  A    between atoms: C_8  and  N_24 
REMARK       I    between atoms: C_19  and  N_21 
REMARK    3  A    between atoms: N_21  and  C_22 
REMARK    4  A    between atoms: C_22  and  N_24 
ROOT
HETATM    1  C   UNL     1       4.172   7.774   0.000  1.00  0.00     0.222 C 
HETATM    2  S   UNL     1       4.172   9.274   0.000  1.00  0.00    -0.037 SA
ENDROOT
BRANCH   1   3
HETATM    3  N   UNL     1       5.471   7.024   0.000  1.00  0.00    -0.192 NA
HETATM    4  C   UNL     1       6.620   7.989   0.000  1.00  0.00     0.207 C 
HETATM    5  O   UNL     1       6.359   9.466   0.000  1.00  0.00    -0.170 OA
BRANCH   4   6
HETATM    6  C   UNL     1       8.029   7.476   0.000  1.00  0.00     0.004 A 
HETATM    7  C   UNL     1       8.290   5.998   0.000  1.00  0.00     0.026 A 
HETATM    8  C   UNL     1       9.699   5.485   0.000  1.00  0.00     0.009 A 
HETATM    9  C   UNL     1      10.848   6.450   0.000  1.00  0.00     0.029 A 
HETATM   10  C   UNL     1      10.588   7.927   0.000  1.00  0.00    -0.005 A 
HETATM   11 BR   UNL     1      11.737   8.891   0.000  1.00  0.00    -0.058 Br
HETATM   12  C   UNL     1       9.178   8.440   0.000  1.00  0.00     0.054 A 
ENDBRANCH   4   6
ENDBRANCH   1   3
BRANCH   1  13
HETATM   13  N   UNL     1       2.873   7.024   0.000  1.00  0.00    -0.222 NA
BRANCH  13  14
HETATM   14  C   UNL     1       2.873   5.524   0.000  1.00  0.00     0.057 A 
HETATM   15  C   UNL     1       4.172   4.774   0.000  1.00  0.00     0.046 A 
HETATM   16  C   UNL     1       4.172   3.275   0.000  1.00  0.00     0.011 A 
HETATM   17  C   UNL     1       2.873   2.525   0.000  1.00  0.00     0.028 A 
HETATM   18  C   UNL     1       1.574   3.275   0.000  1.00  0.00    -0.004 A 
HETATM   19  C   UNL     1       1.574   4.774   0.000  1.00  0.00    -0.011 A 
HETATM   20  C   UNL     1       0.275   2.525   0.000  1.00  0.00     0.104 A 
HETATM   21  C   UNL     1       0.275   5.524   0.000  1.00  0.00     0.028 A 
HETATM   22  C   UNL     1      -1.024   4.774   0.000  1.00  0.00     0.012 A 
HETATM   23  C   UNL     1      -1.024   3.275   0.000  1.00  0.00     0.054 A 
HETATM   24  O   UNL     1       0.275   1.024   0.000  1.00  0.00    -0.195 OA
ENDBRANCH  13  14
ENDBRANCH   1  13
TORSDOF 4
