REMARK  3 active torsions:
REMARK  status: ('A' for Active; 'I' for Inactive)
REMARK    1  A    between atoms: C_7  and  N_15 
REMARK    2  A    between atoms: C_9  and  N_21 
REMARK    3  A    between atoms: C_19  and  N_21 
ROOT
HETATM    1  C   UNL     1      -3.623  -9.274   0.000  1.00  0.00     0.000 A 
HETATM    2  C   UNL     1      -2.324 -10.024   0.000  1.00  0.00     0.063 A 
HETATM    3  C   UNL     1      -4.922 -10.024   0.000  1.00  0.00     0.032 A 
HETATM    4  C   UNL     1      -4.922 -11.524   0.000  1.00  0.00     0.051 A 
HETATM    5  C   UNL     1      -2.324 -11.524   0.000  1.00  0.00     0.091 A 
HETATM    6  C   UNL     1      -3.623 -12.274   0.000  1.00  0.00     0.088 A 
HETATM    7  C   UNL     1      -3.623  -7.774   0.000  1.00  0.00     0.175 A 
HETATM    8  N   UNL     1      -1.024  -9.274   0.000  1.00  0.00    -0.210 NA
HETATM    9  C   UNL     1      -1.024  -7.774   0.000  1.00  0.00     0.270 A 
HETATM   10  O   UNL     1      -2.324  -7.024   0.000  1.00  0.00    -0.296 OA
ENDROOT
BRANCH   9  11
HETATM   11  N   UNL     1       0.275  -7.024   0.000  1.00  0.00    -0.214 NA
BRANCH  11  12
HETATM   12  C   UNL     1       0.275  -5.524   0.000  1.00  0.00     0.047 A 
HETATM   13  C   UNL     1      -1.024  -4.774   0.000  1.00  0.00     0.042 A 
HETATM   14  C   UNL     1      -1.024  -3.275   0.000  1.00  0.00     0.013 A 
HETATM   15  C   UNL     1       0.275  -2.525   0.000  1.00  0.00     0.053 A 
HETATM   16  C   UNL     1       1.574  -3.275   0.000  1.00  0.00     0.101 A 
HETATM   17  F   UNL     1       2.873  -2.525   0.000  1.00  0.00    -0.213 F 
HETATM   18  C   UNL     1       1.574  -4.774   0.000  1.00  0.00     0.093 A 
ENDBRANCH  11  12
ENDBRANCH   9  11
BRANCH   6  19
HETATM   19  N   UNL     1      -3.623 -13.774   0.000  1.00  0.00    -0.122 N 
HETATM   20  O   UNL     1      -4.922 -14.524   0.000  1.00  0.00    -0.532 OA
HETATM   21  O   UNL     1      -2.324 -14.524   0.000  1.00  0.00    -0.532 OA
ENDBRANCH   6  19
TORSDOF 3
