REMARK  2 active torsions:
REMARK  status: ('A' for Active; 'I' for Inactive)
REMARK       I    between atoms: N_2  and  C_14 
REMARK    1  A    between atoms: C_6  and  N_16 
REMARK    2  A    between atoms: C_10  and  S_17 
REMARK       I    between atoms: C_14  and  N_16 
ROOT
HETATM    1  N   UNL     1       2.973   0.649   0.000  1.00  0.00    -0.364 N 
HETATM    2  N   UNL     1       5.571  -0.851   0.000  1.00  0.00    -0.309 N 
HETATM    3  C   UNL     1       5.571   0.649   0.000  1.00  0.00     0.129 A 
HETATM    4  C   UNL     1       4.272   1.399   0.000  1.00  0.00     0.122 A 
HETATM    5  C   UNL     1       4.272  -1.601   0.000  1.00  0.00     0.129 A 
HETATM    6  C   UNL     1       2.973  -0.851   0.000  1.00  0.00     0.122 A 
HETATM    7  C   UNL     1       1.674   1.399   0.000  1.00  0.00     0.121 C 
HETATM    8  C   UNL     1       6.870  -1.601   0.000  1.00  0.00     0.277 C 
HETATM    9  O   UNL     1       6.870  -3.100   0.000  1.00  0.00    -0.149 OA
HETATM   10  N   UNL     1       8.169  -0.851   0.000  1.00  0.00    -0.214 NA
ENDROOT
BRANCH  10  11
HETATM   11  C   UNL     1       9.468  -1.601   0.000  1.00  0.00     0.041 A 
HETATM   12  C   UNL     1      10.767  -0.850   0.000  1.00  0.00     0.042 A 
HETATM   13  C   UNL     1      12.066  -1.600   0.000  1.00  0.00     0.007 A 
HETATM   14  C   UNL     1      12.066  -3.100   0.000  1.00  0.00     0.012 A 
HETATM   15  C   UNL     1      10.767  -3.850   0.000  1.00  0.00     0.053 A 
HETATM   16  C   UNL     1       9.468  -3.100   0.000  1.00  0.00     0.052 A 
BRANCH  15  17
HETATM   17  S   UNL     1      10.767  -5.350   0.000  1.00  0.00    -0.140 SA
HETATM   18  C   UNL     1      12.066  -6.100   0.000  1.00  0.00     0.069 C 
ENDBRANCH  15  17
ENDBRANCH  10  11
TORSDOF 2
