REMARK  2 active torsions:
REMARK  status: ('A' for Active; 'I' for Inactive)
REMARK    1  A    between atoms: N_5  and  C_16 
REMARK    2  A    between atoms: C_13  and  N_24 
ROOT
HETATM    1  O   UNL     1      -6.835   7.618   0.000  1.00  0.00    -0.168 OA
HETATM    2  N   UNL     1      -3.445   9.508   0.000  1.00  0.00    -0.266 N 
HETATM    3  N   UNL     1      -4.945   9.508   0.000  1.00  0.00    -0.233 N 
HETATM    4  C   UNL     1      -5.408   8.081   0.000  1.00  0.00     0.230 A 
HETATM    5  C   UNL     1      -4.195   7.200   0.000  1.00  0.00     0.135 A 
HETATM    6  C   UNL     1      -2.981   8.081   0.000  1.00  0.00     0.075 A 
HETATM    7  C   UNL     1      -1.555   7.618   0.000  1.00  0.00     0.053 C 
HETATM    8  C   UNL     1      -2.563  10.722   0.000  1.00  0.00     0.152 C 
ENDROOT
BRANCH   5   9
HETATM    9  N   UNL     1      -4.195   5.700   0.000  1.00  0.00    -0.218 N 
HETATM   10  C   UNL     1      -2.896   4.950   0.000  1.00  0.00     0.295 A 
HETATM   11  N   UNL     1      -2.896   3.450   0.000  1.00  0.00    -0.203 NA
HETATM   12  O   UNL     1      -1.597   5.700   0.000  1.00  0.00    -0.148 OA
HETATM   13  C   UNL     1      -4.195   2.700   0.000  1.00  0.00     0.099 A 
HETATM   14  C   UNL     1      -5.494   3.450   0.000  1.00  0.00     0.060 A 
HETATM   15  C   UNL     1      -4.195   1.200   0.000  1.00  0.00     0.054 A 
HETATM   16 CL   UNL     1      -5.494   4.950   0.000  1.00  0.00    -0.059 Cl
HETATM   17  C   UNL     1      -6.793   2.700   0.000  1.00  0.00     0.041 A 
HETATM   18  C   UNL     1      -6.793   1.200   0.000  1.00  0.00     0.011 A 
HETATM   19  C   UNL     1      -5.494   0.450   0.000  1.00  0.00     0.040 A 
HETATM   20 CL   UNL     1      -2.896   0.450   0.000  1.00  0.00    -0.086 Cl
ENDBRANCH   5   9
BRANCH   3  21
HETATM   21  C   UNL     1      -5.827  10.722   0.000  1.00  0.00     0.039 A 
HETATM   22  C   UNL     1      -7.318  10.565   0.000  1.00  0.00     0.041 A 
HETATM   23  C   UNL     1      -8.200  11.778   0.000  1.00  0.00     0.006 A 
HETATM   24  C   UNL     1      -7.590  13.149   0.000  1.00  0.00     0.001 A 
HETATM   25  C   UNL     1      -6.098  13.305   0.000  1.00  0.00     0.006 A 
HETATM   26  C   UNL     1      -5.216  12.092   0.000  1.00  0.00     0.041 A 
ENDBRANCH   3  21
TORSDOF 2
