REMARK  4 active torsions:
REMARK  status: ('A' for Active; 'I' for Inactive)
REMARK    1  A    between atoms: O_1  and  C_7 
REMARK    2  A    between atoms: O_1  and  C_23 
REMARK    3  A    between atoms: C_16  and  N_22 
REMARK    4  A    between atoms: C_19  and  S_20 
REMARK       I    between atoms: N_22  and  C_23 
ROOT
HETATM    1  C   UNL     1      -4.911  -3.312   0.000  1.00  0.00    -0.004 A 
HETATM    2  C   UNL     1      -5.971  -4.373   0.000  1.00  0.00    -0.024 A 
HETATM    3  C   UNL     1      -3.411  -3.312   0.000  1.00  0.00    -0.000 A 
HETATM    4  C   UNL     1      -2.350  -4.373   0.000  1.00  0.00    -0.000 A 
HETATM    5  C   UNL     1      -7.270  -3.623   0.000  1.00  0.00     0.056 A 
HETATM    6  C   UNL     1      -8.569  -4.373   0.000  1.00  0.00     0.130 A 
HETATM    7  C   UNL     1      -8.569  -5.873   0.000  1.00  0.00     0.035 A 
HETATM    8  C   UNL     1      -2.350  -5.873   0.000  1.00  0.00    -0.000 A 
HETATM    9  C   UNL     1      -7.270  -6.623   0.000  1.00  0.00     0.029 A 
HETATM   10  C   UNL     1      -5.971  -5.873   0.000  1.00  0.00    -0.026 A 
HETATM   11  C   UNL     1      -4.910  -6.933   0.000  1.00  0.00    -0.005 A 
HETATM   12  C   UNL     1      -3.410  -6.933   0.000  1.00  0.00    -0.000 A 
ENDROOT
BRANCH   6  13
HETATM   13  O   UNL     1      -9.868  -3.623   0.000  1.00  0.00    -0.296 OA
BRANCH  13  14
HETATM   14  C   UNL     1     -11.017  -4.587   0.000  1.00  0.00     0.318 C 
HETATM   15  N   UNL     1     -12.427  -4.074   0.000  1.00  0.00    -0.207 NA
HETATM   16  O   UNL     1     -10.757  -6.064   0.000  1.00  0.00    -0.141 OA
BRANCH  15  17
HETATM   17  C   UNL     1     -12.688  -2.597   0.000  1.00  0.00     0.042 A 
HETATM   18  C   UNL     1     -11.538  -1.633   0.000  1.00  0.00     0.042 A 
HETATM   19  C   UNL     1     -11.799  -0.155   0.000  1.00  0.00     0.007 A 
HETATM   20  C   UNL     1     -13.209   0.358   0.000  1.00  0.00     0.012 A 
HETATM   21  C   UNL     1     -14.357  -0.607   0.000  1.00  0.00     0.053 A 
HETATM   22  C   UNL     1     -14.097  -2.084   0.000  1.00  0.00     0.052 A 
BRANCH  21  23
HETATM   23  S   UNL     1     -15.767  -0.094   0.000  1.00  0.00    -0.140 SA
HETATM   24  C   UNL     1     -16.916  -1.058   0.000  1.00  0.00     0.069 C 
ENDBRANCH  21  23
ENDBRANCH  15  17
ENDBRANCH  13  14
ENDBRANCH   6  13
TORSDOF 4
