REMARK  4 active torsions:
REMARK  status: ('A' for Active; 'I' for Inactive)
REMARK    1  A    between atoms: C_1  and  C_13 
REMARK    2  A    between atoms: C_3  and  N_16 
REMARK    3  A    between atoms: C_8  and  N_19 
REMARK    4  A    between atoms: C_12  and  S_20 
REMARK       I    between atoms: N_16  and  C_17 
REMARK       I    between atoms: C_17  and  N_19 
ROOT
HETATM    1  N   UNL     1      -9.387   4.569   0.000  1.00  0.00    -0.208 NA
HETATM    2  C   UNL     1      -8.102   3.796   0.000  1.00  0.00     0.299 C 
HETATM    3  O   UNL     1      -8.129   2.296   0.000  1.00  0.00    -0.147 OA
HETATM    4  N   UNL     1      -6.790   4.523   0.000  1.00  0.00    -0.212 NA
ENDROOT
BRANCH   1   5
HETATM    5  C   UNL     1      -9.100   6.042   0.000  1.00  0.00     0.062 A 
HETATM    6  C   UNL     1     -10.232   7.026   0.000  1.00  0.00     0.030 A 
HETATM    7  C   UNL     1      -9.945   8.499   0.000  1.00  0.00     0.031 A 
HETATM    8  C   UNL     1      -8.526   8.986   0.000  1.00  0.00     0.005 A 
HETATM    9  C   UNL     1      -7.395   8.002   0.000  1.00  0.00     0.007 A 
HETATM   10  C   UNL     1      -7.682   6.529   0.000  1.00  0.00     0.046 A 
BRANCH   6  11
HETATM   11  C   UNL     1     -11.650   6.539   0.000  1.00  0.00     0.197 C 
HETATM   12  O   UNL     1     -12.782   7.524   0.000  1.00  0.00    -0.175 OA
HETATM   13  N   UNL     1     -11.938   5.067   0.000  1.00  0.00    -0.071 NA
ENDBRANCH   6  11
ENDBRANCH   1   5
BRANCH   4  14
HETATM   14  C   UNL     1      -5.505   3.749   0.000  1.00  0.00     0.041 A 
HETATM   15  C   UNL     1      -4.192   4.476   0.000  1.00  0.00     0.042 A 
HETATM   16  C   UNL     1      -2.907   3.703   0.000  1.00  0.00     0.007 A 
HETATM   17  C   UNL     1      -2.934   2.203   0.000  1.00  0.00     0.012 A 
HETATM   18  C   UNL     1      -4.246   1.476   0.000  1.00  0.00     0.053 A 
HETATM   19  C   UNL     1      -5.532   2.249   0.000  1.00  0.00     0.052 A 
BRANCH  18  20
HETATM   20  S   UNL     1      -4.273  -0.024   0.000  1.00  0.00    -0.140 SA
HETATM   21  C   UNL     1      -2.988  -0.797   0.000  1.00  0.00     0.069 C 
ENDBRANCH  18  20
ENDBRANCH   4  14
TORSDOF 4
