REMARK  2 active torsions:
REMARK  status: ('A' for Active; 'I' for Inactive)
REMARK    1  A    between atoms: O_2  and  C_18 
REMARK    2  A    between atoms: C_7  and  N_17 
REMARK       I    between atoms: N_17  and  C_18 
ROOT
HETATM    1  O   UNL     1       1.038   0.875   0.000  1.00  0.00     0.000 OA
HETATM    2  O   UNL     1       3.416   2.704   0.000  1.00  0.00    -0.335 OA
HETATM    3 BR   UNL     1       4.205  -3.244   0.000  1.00  0.00    -0.058 Br
HETATM    4  C   UNL     1       2.424   0.302   0.000  1.00  0.00    -0.002 A 
HETATM    5  C   UNL     1       3.613   1.216   0.000  1.00  0.00     0.068 A 
HETATM    6  C   UNL     1       2.621  -1.185   0.000  1.00  0.00     0.057 A 
HETATM    7  C   UNL     1       5.000   0.644   0.000  1.00  0.00     0.056 A 
HETATM    8  C   UNL     1       4.008  -1.758   0.000  1.00  0.00    -0.005 A 
HETATM    9  C   UNL     1       5.197  -0.843   0.000  1.00  0.00     0.036 A 
HETATM   10  C   UNL     1       0.841   2.362   0.000  1.00  0.00     0.035 A 
HETATM   11  C   UNL     1       2.030   3.276   0.000  1.00  0.00     0.148 A 
ENDROOT
BRANCH   1  12
HETATM   12  C   UNL     1      -0.292   0.181   0.000  1.00  0.00     0.256 C 
HETATM   13  N   UNL     1      -1.558   0.986   0.000  1.00  0.00    -0.226 NA
HETATM   14  O   UNL     1      -0.356  -1.317   0.000  1.00  0.00    -0.165 OA
BRANCH  13  15
HETATM   15  C   UNL     1      -2.888   0.292   0.000  1.00  0.00     0.040 A 
HETATM   16  C   UNL     1      -2.952  -1.206   0.000  1.00  0.00     0.048 A 
HETATM   17  C   UNL     1      -4.282  -1.900   0.000  1.00  0.00     0.058 A 
HETATM   18  C   UNL     1      -5.548  -1.095   0.000  1.00  0.00     0.096 A 
HETATM   19  F   UNL     1      -6.878  -1.789   0.000  1.00  0.00    -0.213 F 
HETATM   20  C   UNL     1      -5.484   0.403   0.000  1.00  0.00     0.058 A 
HETATM   21  C   UNL     1      -4.154   1.097   0.000  1.00  0.00     0.048 A 
ENDBRANCH  13  15
ENDBRANCH   1  12
TORSDOF 2
