REMARK  4 active torsions:
REMARK  status: ('A' for Active; 'I' for Inactive)
REMARK    1  A    between atoms: N_4  and  C_7 
REMARK    2  A    between atoms: N_4  and  N_5 
REMARK    3  A    between atoms: N_5  and  C_10 
REMARK    4  A    between atoms: C_12  and  O_17 
ROOT
HETATM    1  N   UNL     1      -1.617  -2.039   0.000  1.00  0.00    -0.143 NA
ENDROOT
BRANCH   1   2
HETATM    2  C   UNL     1      -2.670  -3.107   0.000  1.00  0.00     0.166 A 
HETATM    3  C   UNL     1      -4.154  -2.882   0.000  1.00  0.00     0.166 A 
HETATM    4  N   UNL     1      -4.825  -4.223   0.000  1.00  0.00    -0.261 N 
HETATM    5  N   UNL     1      -4.843  -1.550   0.000  1.00  0.00    -0.079 NA
HETATM    6  H   UNL     1      -6.305  -4.468   0.000  1.00  0.00     0.190 HD
HETATM    7  N   UNL     1      -3.758  -5.277   0.000  1.00  0.00    -0.156 NA
HETATM    8  C   UNL     1      -2.426  -4.587   0.000  1.00  0.00     0.192 A 
HETATM    9  N   UNL     1      -1.085  -5.259   0.000  1.00  0.00    -0.076 NA
ENDBRANCH   1   2
BRANCH   1  10
HETATM   10  N   UNL     1      -0.166  -2.417   0.000  1.00  0.00    -0.157 NA
BRANCH  10  11
HETATM   11  C   UNL     1       1.057  -1.549   0.000  1.00  0.00     0.059 A 
HETATM   12  C   UNL     1       0.916  -0.055   0.000  1.00  0.00     0.046 A 
HETATM   13  C   UNL     1       2.139   0.813   0.000  1.00  0.00     0.036 A 
HETATM   14  C   UNL     1       3.503   0.189   0.000  1.00  0.00     0.116 A 
HETATM   15  C   UNL     1       3.644  -1.305   0.000  1.00  0.00     0.036 A 
HETATM   16  C   UNL     1       2.421  -2.174   0.000  1.00  0.00     0.046 A 
BRANCH  14  17
HETATM   17  O   UNL     1       4.726   1.057   0.000  1.00  0.00    -0.354 OA
HETATM   18  C   UNL     1       4.585   2.551   0.000  1.00  0.00     0.174 C 
ENDBRANCH  14  17
ENDBRANCH  10  11
ENDBRANCH   1  10
TORSDOF 4
