REMARK  4 active torsions:
REMARK  status: ('A' for Active; 'I' for Inactive)
REMARK    1  A    between atoms: N_1  and  C_16 
REMARK    2  A    between atoms: N_1  and  N_2 
REMARK    3  A    between atoms: N_2  and  C_6 
REMARK    4  A    between atoms: N_4  and  C_9 
ROOT
HETATM    1  N   UNL     1       6.084  -5.673   0.000  1.00  0.00    -0.149 NA
HETATM    2  N   UNL     1       7.454  -5.063   0.000  1.00  0.00    -0.222 N 
HETATM    3  C   UNL     1       7.297  -3.571   0.000  1.00  0.00     0.173 A 
HETATM    4  C   UNL     1       5.830  -3.259   0.000  1.00  0.00     0.166 A 
HETATM    5  C   UNL     1       5.080  -4.558   0.000  1.00  0.00     0.193 A 
HETATM    6  N   UNL     1       3.588  -4.715   0.000  1.00  0.00    -0.076 NA
HETATM    7  N   UNL     1       8.412  -2.567   0.000  1.00  0.00    -0.078 NA
ENDROOT
BRANCH   4   8
HETATM    8  N   UNL     1       5.220  -1.889   0.000  1.00  0.00    -0.143 NA
BRANCH   8   9
HETATM    9  N   UNL     1       6.101  -0.675   0.000  1.00  0.00    -0.157 NA
BRANCH   9  10
HETATM   10  C   UNL     1       5.491   0.695   0.000  1.00  0.00     0.058 A 
HETATM   11  C   UNL     1       6.373   1.909   0.000  1.00  0.00     0.043 A 
HETATM   12  C   UNL     1       5.763   3.279   0.000  1.00  0.00     0.006 A 
HETATM   13  C   UNL     1       4.271   3.436   0.000  1.00  0.00     0.001 A 
HETATM   14  C   UNL     1       3.389   2.222   0.000  1.00  0.00     0.006 A 
HETATM   15  C   UNL     1       3.661   4.806   0.000  1.00  0.00     0.000 C 
HETATM   16  C   UNL     1       4.000   0.852   0.000  1.00  0.00     0.043 A 
ENDBRANCH   9  10
ENDBRANCH   8   9
ENDBRANCH   4   8
BRANCH   2  17
HETATM   17  C   UNL     1       8.753  -5.813   0.000  1.00  0.00     0.040 A 
HETATM   18  C   UNL     1      10.052  -5.063   0.000  1.00  0.00     0.041 A 
HETATM   19  C   UNL     1      11.351  -5.813   0.000  1.00  0.00     0.006 A 
HETATM   20  C   UNL     1      11.351  -7.313   0.000  1.00  0.00     0.001 A 
HETATM   21  C   UNL     1      10.052  -8.063   0.000  1.00  0.00     0.006 A 
HETATM   22  C   UNL     1       8.753  -7.313   0.000  1.00  0.00     0.041 A 
ENDBRANCH   2  17
TORSDOF 4
