REMARK  0 active torsions:
REMARK  status: ('A' for Active; 'I' for Inactive)
ROOT
HETATM    1  N   UNL     1       3.348   2.049   0.000  1.00  0.00    -0.019 N 
HETATM    2  N   UNL     1       7.245   4.299   0.000  1.00  0.00    -0.318 N 
HETATM    3  O   UNL     1       8.544   6.549   0.000  1.00  0.00    -0.176 OA
HETATM    4  C   UNL     1       4.647   4.299   0.000  1.00  0.00     0.094 A 
HETATM    5  C   UNL     1       5.946   5.049   0.000  1.00  0.00     0.104 A 
HETATM    6  C   UNL     1       3.348   3.549   0.000  1.00  0.00     0.219 A 
HETATM    7  C   UNL     1       2.049   4.299   0.000  1.00  0.00     0.022 A 
HETATM    8  C   UNL     1       0.750   3.549   0.000  1.00  0.00     0.003 A 
HETATM    9  C   UNL     1       0.750   2.049   0.000  1.00  0.00     0.033 A 
HETATM   10  C   UNL     1       2.049   1.299   0.000  1.00  0.00     0.216 A 
HETATM   11  C   UNL     1       8.544   5.049   0.000  1.00  0.00     0.171 A 
HETATM   12  C   UNL     1       9.843   4.299   0.000  1.00  0.00     0.073 A 
HETATM   13  C   UNL     1       9.843   2.799   0.000  1.00  0.00     0.014 A 
HETATM   14  C   UNL     1       8.544   2.049   0.000  1.00  0.00     0.039 A 
HETATM   15  C   UNL     1       7.245   2.799   0.000  1.00  0.00     0.013 A 
HETATM   16  C   UNL     1       5.946   2.049   0.000  1.00  0.00     0.114 A 
HETATM   17  C   UNL     1       4.647   1.299   0.000  1.00  0.00     0.214 A 
HETATM   18  C   UNL     1       4.647   2.799   0.000  1.00  0.00     0.182 A 
ENDROOT
TORSDOF 0
