REMARK  4 active torsions:
REMARK  status: ('A' for Active; 'I' for Inactive)
REMARK    1  A    between atoms: C_4  and  O_12 
REMARK    2  A    between atoms: C_10  and  O_16 
REMARK    3  A    between atoms: O_12  and  C_13 
REMARK    4  A    between atoms: O_16  and  C_17 
ROOT
HETATM    1  C   UNL     1      -2.049   6.750   0.000  1.00  0.00     0.120 A 
HETATM    2  C   UNL     1      -2.049   5.250   0.000  1.00  0.00     0.120 A 
HETATM    3  O   UNL     1      -0.750   6.000   0.000  1.00  0.00    -0.358 OA
HETATM    4  C   UNL     1      -5.946   7.500   0.000  1.00  0.00     0.071 A 
HETATM    5  C   UNL     1      -7.245   6.750   0.000  1.00  0.00     0.058 A 
HETATM    6  C   UNL     1      -4.647   6.750   0.000  1.00  0.00    -0.004 A 
HETATM    7  C   UNL     1      -3.348   7.500   0.000  1.00  0.00     0.057 A 
HETATM    8  C   UNL     1      -7.245   5.250   0.000  1.00  0.00     0.058 A 
HETATM    9  C   UNL     1      -4.647   5.250   0.000  1.00  0.00    -0.004 A 
HETATM   10  C   UNL     1      -5.946   4.500   0.000  1.00  0.00     0.071 A 
HETATM   11  C   UNL     1      -3.348   4.500   0.000  1.00  0.00     0.057 A 
HETATM   12  C   UNL     1      -1.299   8.049   0.000  1.00  0.00     0.033 C 
HETATM   13  C   UNL     1      -1.299   3.951   0.000  1.00  0.00     0.033 C 
ENDROOT
BRANCH   4  14
HETATM   14  O   UNL     1      -5.946   9.000   0.000  1.00  0.00    -0.308 OA
BRANCH  14  15
HETATM   15  C   UNL     1      -7.245   9.750   0.000  1.00  0.00     0.273 C 
HETATM   16  O   UNL     1      -8.544   9.000   0.000  1.00  0.00    -0.190 OA
HETATM   17  C   UNL     1      -7.245  11.250   0.000  1.00  0.00     0.070 C 
ENDBRANCH  14  15
ENDBRANCH   4  14
BRANCH  10  18
HETATM   18  O   UNL     1      -5.946   3.000   0.000  1.00  0.00    -0.308 OA
BRANCH  18  19
HETATM   19  C   UNL     1      -7.245   2.250   0.000  1.00  0.00     0.273 C 
HETATM   20  O   UNL     1      -8.544   3.000   0.000  1.00  0.00    -0.190 OA
HETATM   21  C   UNL     1      -7.245   0.750   0.000  1.00  0.00     0.070 C 
ENDBRANCH  18  19
ENDBRANCH  10  18
TORSDOF 4
