REMARK  2 active torsions:
REMARK  status: ('A' for Active; 'I' for Inactive)
REMARK    1  A    between atoms: C_12  and  C_26 
REMARK    2  A    between atoms: C_21  and  C_26 
ROOT
HETATM    1  C   UNL     1       8.722   2.250   0.000  1.00  0.00     0.001 C 
ENDROOT
BRANCH   1   2
HETATM    2  C   UNL     1      10.021   3.000   0.000  1.00  0.00     0.005 A 
HETATM    3  C   UNL     1      10.021   4.500   0.000  1.00  0.00     0.006 A 
HETATM    4  C   UNL     1      11.320   5.250   0.000  1.00  0.00     0.043 A 
HETATM    5  C   UNL     1      12.620   4.500   0.000  1.00  0.00     0.025 A 
HETATM    6  N   UNL     1      13.919   5.250   0.000  1.00  0.00    -0.380 N 
HETATM    7  C   UNL     1      12.620   3.000   0.000  1.00  0.00    -0.019 A 
HETATM    8  H   UNL     1      13.919   6.750   0.000  1.00  0.00     0.160 HD
HETATM    9  C   UNL     1      15.218   4.500   0.000  1.00  0.00     0.064 A 
HETATM   10  C   UNL     1      15.218   3.000   0.000  1.00  0.00     0.042 A 
HETATM   11  C   UNL     1      15.731   5.910   0.000  1.00  0.00     0.022 C 
HETATM   12  C   UNL     1      16.695   4.239   0.000  1.00  0.00     0.022 C 
HETATM   13  C   UNL     1      13.919   2.250   0.000  1.00  0.00    -0.045 A 
HETATM   14  C   UNL     1      13.919   0.750   0.000  1.00  0.00     0.026 C 
HETATM   15  C   UNL     1      11.320   2.250   0.000  1.00  0.00     0.027 A 
ENDBRANCH   1   2
BRANCH   1  16
HETATM   16  C   UNL     1       7.423   3.000   0.000  1.00  0.00     0.005 A 
HETATM   17  C   UNL     1       7.423   4.500   0.000  1.00  0.00     0.006 A 
HETATM   18  C   UNL     1       6.124   5.250   0.000  1.00  0.00     0.043 A 
HETATM   19  C   UNL     1       4.825   4.500   0.000  1.00  0.00     0.025 A 
HETATM   20  N   UNL     1       3.526   5.250   0.000  1.00  0.00    -0.380 N 
HETATM   21  C   UNL     1       4.825   3.000   0.000  1.00  0.00    -0.019 A 
HETATM   22  C   UNL     1       2.227   4.500   0.000  1.00  0.00     0.064 A 
HETATM   23  H   UNL     1       3.526   6.750   0.000  1.00  0.00     0.160 HD
HETATM   24  C   UNL     1       2.227   3.000   0.000  1.00  0.00     0.042 A 
HETATM   25  C   UNL     1       0.750   4.239   0.000  1.00  0.00     0.022 C 
HETATM   26  C   UNL     1       1.714   5.910   0.000  1.00  0.00     0.022 C 
HETATM   27  C   UNL     1       3.526   2.250   0.000  1.00  0.00    -0.045 A 
HETATM   28  C   UNL     1       3.526   0.750   0.000  1.00  0.00     0.026 C 
HETATM   29  C   UNL     1       6.124   2.250   0.000  1.00  0.00     0.027 A 
ENDBRANCH   1  16
TORSDOF 2
