REMARK  5 active torsions:
REMARK  status: ('A' for Active; 'I' for Inactive)
REMARK    1  A    between atoms: C_12  and  S_13 
REMARK    2  A    between atoms: S_13  and  C_17 
REMARK    3  A    between atoms: C_14  and  O_16 
REMARK    4  A    between atoms: C_14  and  C_17 
REMARK    5  A    between atoms: O_16  and  C_18 
ROOT
HETATM    1 CL   UNL     1      -7.605  -5.370   0.000  1.00  0.00    -0.059 Cl
HETATM    2 CL   UNL     1      -7.605  -8.370   0.000  1.00  0.00    -0.059 Cl
HETATM    3  C   UNL     1      -6.306  -6.120   0.000  1.00  0.00     0.169 A 
HETATM    4  C   UNL     1      -6.306  -7.620   0.000  1.00  0.00     0.169 A 
HETATM    5  N   UNL     1      -5.007  -5.370   0.000  1.00  0.00    -0.210 NA
HETATM    6  N   UNL     1      -5.007  -8.370   0.000  1.00  0.00    -0.212 NA
HETATM    7  C   UNL     1      -3.708  -6.120   0.000  1.00  0.00     0.200 A 
HETATM    8  C   UNL     1      -3.708  -7.620   0.000  1.00  0.00     0.179 A 
HETATM    9  N   UNL     1      -2.281  -8.084   0.000  1.00  0.00    -0.317 N 
HETATM   10  H   UNL     1      -1.818  -9.510   0.000  1.00  0.00     0.169 HD
HETATM   11  N   UNL     1      -2.281  -5.657   0.000  1.00  0.00    -0.201 NA
HETATM   12  C   UNL     1      -1.399  -6.870   0.000  1.00  0.00     0.171 A 
ENDROOT
BRANCH  12  13
HETATM   13  S   UNL     1       0.101  -6.870   0.000  1.00  0.00    -0.072 SA
BRANCH  13  14
HETATM   14  C   UNL     1       0.851  -5.571   0.000  1.00  0.00     0.129 C 
BRANCH  14  15
HETATM   15  C   UNL     1       0.101  -4.272   0.000  1.00  0.00     0.281 C 
HETATM   16  O   UNL     1      -1.399  -4.272   0.000  1.00  0.00    -0.189 OA
BRANCH  15  17
HETATM   17  O   UNL     1       0.851  -2.973   0.000  1.00  0.00    -0.328 OA
BRANCH  17  18
HETATM   18  C   UNL     1       0.101  -1.674   0.000  1.00  0.00     0.145 C 
HETATM   19  C   UNL     1      -1.399  -1.674   0.000  1.00  0.00     0.035 C 
ENDBRANCH  17  18
ENDBRANCH  15  17
ENDBRANCH  14  15
ENDBRANCH  13  14
ENDBRANCH  12  13
TORSDOF 5
