REMARK  3 active torsions:
REMARK  status: ('A' for Active; 'I' for Inactive)
REMARK    1  A    between atoms: C_2  and  C_5 
REMARK    2  A    between atoms: C_2  and  C_9 
REMARK    3  A    between atoms: C_9  and  C_10 
ROOT
HETATM    1  C   UNL     1       4.721   5.324   0.000  1.00  0.00    -0.088 C 
ENDROOT
BRANCH   1   2
HETATM    2  C   UNL     1       3.422   4.574   0.000  1.00  0.00     0.089 A 
HETATM    3  C   UNL     1       2.123   5.324   0.000  1.00  0.00     0.021 A 
HETATM    4  C   UNL     1       0.824   4.574   0.000  1.00  0.00     0.042 A 
HETATM    5  C   UNL     1       0.824   3.074   0.000  1.00  0.00     0.032 A 
HETATM    6  N   UNL     1       2.123   2.324   0.000  1.00  0.00    -0.278 NA
HETATM    7  C   UNL     1      -0.475   2.324   0.000  1.00  0.00     0.047 C 
HETATM    8  C   UNL     1       3.422   3.074   0.000  1.00  0.00     0.138 A 
ENDBRANCH   1   2
BRANCH   1   9
HETATM    9  C   UNL     1       6.020   6.074   0.000  1.00  0.00    -0.065 C 
BRANCH   9  10
HETATM   10  C   UNL     1       7.319   6.824   0.000  1.00  0.00     0.147 A 
HETATM   11  C   UNL     1       6.569   8.123   0.000  1.00  0.00     0.040 A 
HETATM   12  C   UNL     1       7.868   8.873   0.000  1.00  0.00     0.009 A 
HETATM   13  C   UNL     1       8.618   7.574   0.000  1.00  0.00     0.061 A 
HETATM   14  C   UNL     1       9.368   6.274   0.000  1.00  0.00     0.146 A 
HETATM   15  C   UNL     1       9.917   8.324   0.000  1.00  0.00     0.006 C 
HETATM   16  O   UNL     1       8.069   5.524   0.000  1.00  0.00    -0.347 OA
ENDBRANCH   9  10
ENDBRANCH   1   9
TORSDOF 3
