REMARK  2 active torsions:
REMARK  status: ('A' for Active; 'I' for Inactive)
REMARK    1  A    between atoms: C_12  and  O_17 
REMARK    2  A    between atoms: O_17  and  C_20 
ROOT
HETATM    1  C   UNL     1       0.919   4.814   0.000  1.00  0.00     0.034 C 
HETATM    2  C   UNL     1       0.169   6.113   0.000  1.00  0.00     0.114 A 
HETATM    3  C   UNL     1      -1.130   6.863   0.000  1.00  0.00     0.072 A 
HETATM    4  O   UNL     1      -1.130   5.363   0.000  1.00  0.00    -0.339 OA
HETATM    5  C   UNL     1       1.468   6.863   0.000  1.00  0.00     0.059 C 
HETATM    6  C   UNL     1      -1.130   8.363   0.000  1.00  0.00     0.049 A 
HETATM    7  C   UNL     1       2.767   6.113   0.000  1.00  0.00     0.125 A 
HETATM    8  C   UNL     1       0.169   9.113   0.000  1.00  0.00     0.007 A 
HETATM    9  C   UNL     1       4.066   6.863   0.000  1.00  0.00     0.021 A 
HETATM   10  O   UNL     1       3.079   4.646   0.000  1.00  0.00    -0.310 OA
HETATM   11  C   UNL     1       1.468   8.363   0.000  1.00  0.00     0.016 A 
HETATM   12  C   UNL     1       4.066   8.363   0.000  1.00  0.00     0.072 A 
HETATM   13  C   UNL     1       5.181   5.859   0.000  1.00  0.00     0.027 A 
HETATM   14  C   UNL     1       4.571   4.489   0.000  1.00  0.00     0.224 A 
HETATM   15  C   UNL     1       1.468   6.863   0.000  1.00  0.00     0.059 A 
HETATM   16  C   UNL     1       2.767   9.113   0.000  1.00  0.00     0.051 A 
HETATM   17  C   UNL     1       6.648   6.171   0.000  1.00  0.00     0.035 C 
HETATM   18  O   UNL     1       5.321   3.190   0.000  1.00  0.00    -0.164 OA
ENDROOT
BRANCH  12  19
HETATM   19  O   UNL     1       5.365   9.113   0.000  1.00  0.00    -0.308 OA
BRANCH  19  20
HETATM   20  C   UNL     1       5.365  10.613   0.000  1.00  0.00     0.273 C 
HETATM   21  C   UNL     1       6.664  11.363   0.000  1.00  0.00     0.070 C 
HETATM   22  O   UNL     1       4.066  11.363   0.000  1.00  0.00    -0.190 OA
ENDBRANCH  19  20
ENDBRANCH  12  19
TORSDOF 2
