REMARK  2 active torsions:
REMARK  status: ('A' for Active; 'I' for Inactive)
REMARK    1  A    between atoms: C_3  and  O_15 
REMARK    2  A    between atoms: O_19  and  C_20 
ROOT
HETATM    1  O   UNL     1       0.750   2.199   0.000  1.00  0.00    -0.164 OA
HETATM    2  O   UNL     1       2.049   4.449   0.000  1.00  0.00    -0.307 OA
HETATM    3  C   UNL     1       3.348   6.699   0.000  1.00  0.00     0.078 A 
HETATM    4  C   UNL     1       8.544   5.199   0.000  1.00  0.00     0.047 A 
HETATM    5  O   UNL     1       8.544   2.199   0.000  1.00  0.00    -0.189 OA
HETATM    6  C   UNL     1       8.544   6.699   0.000  1.00  0.00     0.045 A 
HETATM    7  C   UNL     1       7.245   7.449   0.000  1.00  0.00    -0.044 A 
HETATM    8  C   UNL     1       5.946   6.699   0.000  1.00  0.00    -0.030 A 
HETATM    9  C   UNL     1       5.946   5.199   0.000  1.00  0.00     0.049 A 
HETATM   10  C   UNL     1       4.647   4.449   0.000  1.00  0.00     0.065 A 
HETATM   11  C   UNL     1       3.348   5.199   0.000  1.00  0.00     0.146 A 
HETATM   12  C   UNL     1       7.245   4.449   0.000  1.00  0.00    -0.019 A 
HETATM   13  C   UNL     1       7.245   2.949   0.000  1.00  0.00     0.145 A 
HETATM   14  C   UNL     1       2.049   2.949   0.000  1.00  0.00     0.227 A 
HETATM   15  C   UNL     1       4.647   5.949   0.000  1.00  0.00     0.081 A 
HETATM   16  C   UNL     1       8.701   8.191   0.000  1.00  0.00     0.052 A 
HETATM   17  O   UNL     1       4.647   7.449   0.000  1.00  0.00     0.000 OA
HETATM   18  C   UNL     1       9.971   4.735   0.000  1.00  0.00     0.001 A 
HETATM   19  C   UNL     1      10.852   5.949   0.000  1.00  0.00     0.031 A 
HETATM   20  C   UNL     1       9.971   7.162   0.000  1.00  0.00     0.134 A 
HETATM   21  O   UNL     1      10.434   8.589   0.000  1.00  0.00    -0.225 OA
HETATM   22  C   UNL     1       4.647   2.949   0.000  1.00  0.00     0.008 A 
HETATM   23  C   UNL     1       3.348   2.199   0.000  1.00  0.00     0.055 A 
HETATM   24  C   UNL     1       4.058   0.750   0.000  1.00  0.00     0.179 A 
HETATM   25  O   UNL     1       5.558   0.750   0.000  1.00  0.00    -0.324 OA
HETATM   26  C   UNL     1       5.946   2.199   0.000  1.00  0.00     0.115 A 
ENDROOT
BRANCH  17  27
HETATM   27  C   UNL     1       4.647   8.949   0.000  1.00  0.00     0.130 C 
HETATM   28  O   UNL     1       3.348   9.699   0.000  1.00  0.00    -0.193 OA
HETATM   29  C   UNL     1       5.946   9.699   0.000  1.00  0.00     0.063 C 
ENDBRANCH  17  27
BRANCH   3  30
HETATM   30  O   UNL     1       2.049   7.449   0.000  1.00  0.00    -0.334 OA
HETATM   31  C   UNL     1       0.750   6.699   0.000  1.00  0.00     0.181 C 
ENDBRANCH   3  30
TORSDOF 2
