REMARK  2 active torsions:
REMARK  status: ('A' for Active; 'I' for Inactive)
REMARK    1  A    between atoms: C_18  and  C_20 
REMARK    2  A    between atoms: C_20  and  AS_21 
ROOT
HETATM    1 CL   UNL     1      -5.946   0.750   0.000  1.00  0.00    -0.091 Cl
HETATM    2  O   UNL     1      -0.750   3.750   0.000  1.00  0.00    -0.326 OA
HETATM    3 CL   UNL     1      -0.750   0.750   0.000  1.00  0.00    -0.085 Cl
HETATM    4  C   UNL     1      -3.348   3.750   0.000  1.00  0.00     0.099 A 
HETATM    5  C   UNL     1      -4.647   3.000   0.000  1.00  0.00     0.087 A 
HETATM    6  C   UNL     1      -2.049   3.000   0.000  1.00  0.00     0.119 A 
HETATM    7  C   UNL     1      -4.647   1.500   0.000  1.00  0.00     0.025 A 
HETATM    8  C   UNL     1      -2.049   1.500   0.000  1.00  0.00     0.064 A 
HETATM    9  C   UNL     1      -3.348   0.750   0.000  1.00  0.00     0.074 A 
HETATM   10  C   UNL     1      -0.750   5.250   0.000  1.00  0.00     0.179 A 
HETATM   11  C   UNL     1      -2.049   6.000   0.000  1.00  0.00     0.151 A 
HETATM   12  O   UNL     1      -3.348   5.250   0.000  1.00  0.00    -0.333 OA
ENDROOT
BRANCH  11  13
HETATM   13  C   UNL     1      -2.049   7.500   0.000  1.00  0.00     0.035 C 
BRANCH  13  14
HETATM   14 AS   UNL     1      -3.348   8.250   0.000  1.00  0.00     0.000 As
HETATM   15  O   UNL     1      -4.098   6.951   0.000  1.00  0.00     0.000 OA
HETATM   16  C   UNL     1      -4.647   9.000   0.000  1.00  0.00    -0.006 A 
HETATM   17  C   UNL     1      -5.946   8.250   0.000  1.00  0.00     0.028 A 
HETATM   18  C   UNL     1      -4.647  10.500   0.000  1.00  0.00     0.070 A 
HETATM   19  C   UNL     1      -7.245   9.000   0.000  1.00  0.00     0.005 A 
HETATM   20  C   UNL     1      -7.245  10.500   0.000  1.00  0.00     0.007 A 
HETATM   21  C   UNL     1      -5.946  11.250   0.000  1.00  0.00     0.051 A 
HETATM   22  O   UNL     1      -3.348  11.250   0.000  1.00  0.00    -0.304 OA
HETATM   23  C   UNL     1      -2.049  10.500   0.000  1.00  0.00     0.334 A 
HETATM   24  O   UNL     1      -2.598   9.549   0.000  1.00  0.00    -0.184 OA
ENDBRANCH  13  14
ENDBRANCH  11  13
TORSDOF 2
