REMARK  2 active torsions:
REMARK  status: ('A' for Active; 'I' for Inactive)
REMARK    1  A    between atoms: C_5  and  AS_16 
REMARK    2  A    between atoms: C_10  and  AS_16 
ROOT
HETATM    1  O   UNL     1      -5.471  -4.024   0.000  1.00  0.00     0.000 OA
HETATM    2 AS   UNL     1      -4.721  -5.324   0.000  1.00  0.00     0.000 As
HETATM    3  O   UNL     1      -3.971  -6.623   0.000  1.00  0.00     0.000 OA
ENDROOT
BRANCH   2   4
HETATM    4  C   UNL     1      -6.020  -6.074   0.000  1.00  0.00    -0.003 A 
HETATM    5  C   UNL     1      -7.319  -5.324   0.000  1.00  0.00     0.028 A 
HETATM    6  C   UNL     1      -8.618  -6.074   0.000  1.00  0.00     0.005 A 
HETATM    7  C   UNL     1      -8.618  -7.574   0.000  1.00  0.00     0.007 A 
HETATM    8  C   UNL     1      -7.319  -8.324   0.000  1.00  0.00     0.054 A 
HETATM    9  C   UNL     1      -6.020  -7.574   0.000  1.00  0.00     0.104 A 
HETATM   10  O   UNL     1      -4.721  -8.324   0.000  1.00  0.00    -0.195 OA
ENDBRANCH   2   4
BRANCH   2  11
HETATM   11  C   UNL     1      -3.422  -4.574   0.000  1.00  0.00    -0.051 A 
HETATM   12  C   UNL     1      -3.422  -3.074   0.000  1.00  0.00     0.027 A 
HETATM   13  C   UNL     1      -2.123  -2.324   0.000  1.00  0.00     0.038 A 
HETATM   14  C   UNL     1      -0.824  -3.074   0.000  1.00  0.00     0.014 A 
HETATM   15 CL   UNL     1       0.475  -2.324   0.000  1.00  0.00    -0.092 Cl
HETATM   16  C   UNL     1      -0.824  -4.574   0.000  1.00  0.00     0.038 A 
HETATM   17  C   UNL     1      -2.123  -5.324   0.000  1.00  0.00     0.027 A 
ENDBRANCH   2  11
TORSDOF 2
