REMARK  5 active torsions:
REMARK  status: ('A' for Active; 'I' for Inactive)
REMARK    1  A    between atoms: C_19  and  C_23 
REMARK    2  A    between atoms: C_34  and  C_37 
REMARK    3  A    between atoms: C_41  and  C_45 
REMARK    4  A    between atoms: C_45  and  C_46 
REMARK    5  A    between atoms: C_46  and  C_47 
ROOT
HETATM    1  C   UNL     1       9.619   6.750   0.000  1.00  0.00     0.127 A 
HETATM    2  C   UNL     1       9.619   5.250   0.000  1.00  0.00     0.099 A 
HETATM    3  C   UNL     1      10.918   4.500   0.000  1.00  0.00     0.084 A 
HETATM    4  C   UNL     1      12.217   5.250   0.000  1.00  0.00     0.035 A 
HETATM    5  C   UNL     1      12.217   6.750   0.000  1.00  0.00     0.113 A 
HETATM    6  C   UNL     1      10.918   7.500   0.000  1.00  0.00     0.104 A 
HETATM    7  C   UNL     1      13.516   4.500   0.000  1.00  0.00     0.151 A 
HETATM    8  C   UNL     1      14.815   5.250   0.000  1.00  0.00     0.158 A 
HETATM    9  C   UNL     1      14.815   6.750   0.000  1.00  0.00     0.253 A 
HETATM   10  O   UNL     1      13.516   7.500   0.000  1.00  0.00    -0.282 OA
HETATM   11  O   UNL     1       8.320   7.500   0.000  1.00  0.00    -0.305 OA
HETATM   12  O   UNL     1       5.722   7.500   0.000  1.00  0.00    -0.337 OA
HETATM   13  C   UNL     1       4.423   6.750   0.000  1.00  0.00     0.107 A 
HETATM   14  C   UNL     1       4.423   5.250   0.000  1.00  0.00     0.065 A 
HETATM   15  C   UNL     1       5.722   4.500   0.000  1.00  0.00     0.140 A 
HETATM   16  C   UNL     1       7.021   5.250   0.000  1.00  0.00     0.177 A 
HETATM   17  C   UNL     1       7.021   6.750   0.000  1.00  0.00     0.224 A 
HETATM   18  O   UNL     1       5.722   3.000   0.000  1.00  0.00    -0.310 OA
HETATM   19  C   UNL     1       4.313   2.487   0.000  1.00  0.00     0.242 A 
HETATM   20  O   UNL     1       3.163   3.451   0.000  1.00  0.00    -0.162 OA
HETATM   21  O   UNL     1       3.124   4.500   0.000  1.00  0.00     0.000 OA
HETATM   22  C   UNL     1       1.825   5.250   0.000  1.00  0.00     0.000 C 
HETATM   23  C   UNL     1       3.124   7.500   0.000  1.00  0.00     0.030 C 
HETATM   24  C   UNL     1       5.722   6.000   0.000  1.00  0.00     0.122 A 
HETATM   25  O   UNL     1       8.320   4.500   0.000  1.00  0.00    -0.330 OA
HETATM   26 CL   UNL     1      10.918   9.000   0.000  1.00  0.00    -0.078 Cl
HETATM   27  O   UNL     1      16.114   7.500   0.000  1.00  0.00    -0.162 OA
HETATM   28  C   UNL     1      17.413   5.250   0.000  1.00  0.00     0.205 A 
HETATM   29  O   UNL     1      17.413   6.750   0.000  1.00  0.00    -0.169 OA
HETATM   30  N   UNL     1      16.114   4.500   0.000  1.00  0.00    -0.214 NA
HETATM   31  O   UNL     1      13.516   3.000   0.000  1.00  0.00    -0.189 OA
ENDROOT
BRANCH  28  32
HETATM   32  C   UNL     1      18.712   4.500   0.000  1.00  0.00     0.004 A 
HETATM   33  C   UNL     1      18.712   3.000   0.000  1.00  0.00     0.033 A 
HETATM   34  C   UNL     1      20.012   2.250   0.000  1.00  0.00     0.058 A 
HETATM   35  C   UNL     1      21.311   3.000   0.000  1.00  0.00     0.101 A 
HETATM   36  C   UNL     1      21.311   4.500   0.000  1.00  0.00    -0.019 A 
HETATM   37  O   UNL     1      22.610   2.250   0.000  1.00  0.00    -0.196 OA
HETATM   38  C   UNL     1      20.012   5.250   0.000  1.00  0.00     0.049 A 
BRANCH  36  39
HETATM   39  C   UNL     1      22.610   5.250   0.000  1.00  0.00     0.024 C 
BRANCH  39  40
HETATM   40  C   UNL     1      23.909   4.500   0.000  1.00  0.00     0.004 C 
BRANCH  40  41
HETATM   41  C   UNL     1      25.208   5.250   0.000  1.00  0.00     0.000 C 
HETATM   42  C   UNL     1      26.507   4.500   0.000  1.00  0.00     0.000 C 
HETATM   43  C   UNL     1      25.208   6.750   0.000  1.00  0.00     0.000 C 
ENDBRANCH  40  41
ENDBRANCH  39  40
ENDBRANCH  36  39
ENDBRANCH  28  32
BRANCH  19  44
HETATM   44  C   UNL     1       4.052   1.010   0.000  1.00  0.00     0.102 A 
HETATM   45  C   UNL     1       2.704   0.352   0.000  1.00  0.00     0.052 A 
HETATM   46  C   UNL     1       2.913  -1.133   0.000  1.00  0.00     0.031 A 
HETATM   47  C   UNL     1       4.390  -1.394   0.000  1.00  0.00     0.104 A 
HETATM   48  N   UNL     1       5.094  -0.069   0.000  1.00  0.00    -0.273 NA
HETATM   49  C   UNL     1       5.047  -2.742   0.000  1.00  0.00     0.026 C 
ENDBRANCH  19  44
TORSDOF 5
