REMARK  1 active torsions:
REMARK  status: ('A' for Active; 'I' for Inactive)
REMARK    1  A    between atoms: C_10  and  C_13 
ROOT
HETATM    1  C   UNL     1       0.750   4.500   0.000  1.00  0.00     0.011 A 
HETATM    2  C   UNL     1       0.750   3.000   0.000  1.00  0.00     0.056 A 
HETATM    3  C   UNL     1       2.049   5.250   0.000  1.00  0.00     0.024 A 
HETATM    4  C   UNL     1       2.049   2.250   0.000  1.00  0.00     0.125 A 
HETATM    5  C   UNL     1       3.348   4.500   0.000  1.00  0.00    -0.021 A 
HETATM    6  C   UNL     1       3.348   3.000   0.000  1.00  0.00     0.095 A 
HETATM    7  N   UNL     1       4.647   2.250   0.000  1.00  0.00    -0.249 NA
HETATM    8  C   UNL     1       4.647   5.250   0.000  1.00  0.00     0.049 A 
HETATM    9  C   UNL     1       5.946   3.000   0.000  1.00  0.00     0.054 A 
HETATM   10  C   UNL     1       5.946   4.500   0.000  1.00  0.00     0.006 A 
HETATM   11  O   UNL     1       2.049   0.750   0.000  1.00  0.00    -0.193 OA
HETATM   12  C   UNL     1       7.245   2.250   0.000  1.00  0.00     0.051 C 
ENDROOT
BRANCH  10  13
HETATM   13  C   UNL     1       7.245   5.250   0.000  1.00  0.00     0.206 C 
HETATM   14  O   UNL     1       8.544   4.500   0.000  1.00  0.00    -0.216 OA
ENDBRANCH  10  13
TORSDOF 1
