REMARK  2 active torsions:
REMARK  status: ('A' for Active; 'I' for Inactive)
REMARK    1  A    between atoms: C_8  and  N_11 
REMARK    2  A    between atoms: N_11  and  S_12 
ROOT
HETATM    1  C   UNL     1       0.750   4.140   0.000  1.00  0.00     0.007 A 
HETATM    2  C   UNL     1       0.750   2.640   0.000  1.00  0.00     0.007 A 
HETATM    3  C   UNL     1       2.049   4.890   0.000  1.00  0.00     0.048 A 
HETATM    4  C   UNL     1       2.049   1.890   0.000  1.00  0.00     0.045 A 
HETATM    5  C   UNL     1       3.348   4.140   0.000  1.00  0.00     0.089 A 
HETATM    6  C   UNL     1       3.348   2.640   0.000  1.00  0.00     0.065 A 
HETATM    7  N   UNL     1       4.775   4.604   0.000  1.00  0.00    -0.064 NA
HETATM    8  C   UNL     1       5.656   3.390   0.000  1.00  0.00     0.738 A 
HETATM    9  N   UNL     1       4.775   2.177   0.000  1.00  0.00    -0.188 N 
HETATM   10  H   UNL     1       5.238   0.750   0.000  1.00  0.00     0.184 HD
ENDROOT
BRANCH   8  11
HETATM   11  N   UNL     1       7.156   3.390   0.000  1.00  0.00     0.028 NA
BRANCH  11  12
HETATM   12  S   UNL     1       7.906   4.689   0.000  1.00  0.00     0.281 S 
HETATM   13  O   UNL     1       9.205   3.939   0.000  1.00  0.00    -0.202 OA
HETATM   14  O   UNL     1       6.607   5.439   0.000  1.00  0.00    -0.202 OA
HETATM   15  C   UNL     1       8.656   5.988   0.000  1.00  0.00     0.166 C 
ENDBRANCH  11  12
ENDBRANCH   8  11
TORSDOF 2
