REMARK  4 active torsions:
REMARK  status: ('A' for Active; 'I' for Inactive)
REMARK    1  A    between atoms: N_2  and  C_18 
REMARK    2  A    between atoms: C_14  and  C_20 
REMARK    3  A    between atoms: C_17  and  C_19 
REMARK    4  A    between atoms: C_18  and  C_19 
ROOT
HETATM    1  O   UNL     1      -9.181   4.435   0.000  1.00  0.00    -0.171 OA
HETATM    2  N   UNL     1     -10.139   1.939   0.000  1.00  0.00    -0.286 N 
HETATM    3  O   UNL     1     -11.821  -0.138   0.000  1.00  0.00    -0.171 OA
HETATM    4  C   UNL     1     -10.296   3.431   0.000  1.00  0.00     0.192 A 
HETATM    5  C   UNL     1     -11.763   3.743   0.000  1.00  0.00     0.019 A 
HETATM    6  C   UNL     1     -12.513   5.042   0.000  1.00  0.00     0.030 A 
HETATM    7  C   UNL     1     -14.013   5.042   0.000  1.00  0.00     0.005 A 
HETATM    8  C   UNL     1     -12.513   2.444   0.000  1.00  0.00     0.019 A 
HETATM    9  C   UNL     1     -14.763   3.743   0.000  1.00  0.00     0.005 A 
HETATM   10  C   UNL     1     -14.013   2.444   0.000  1.00  0.00     0.030 A 
HETATM   11  C   UNL     1     -11.509   1.329   0.000  1.00  0.00     0.192 A 
ENDROOT
BRANCH   2  12
HETATM   12  C   UNL     1      -8.840   1.189   0.000  1.00  0.00     0.116 C 
BRANCH  12  13
HETATM   13  C   UNL     1      -7.541   1.939   0.000  1.00  0.00     0.066 C 
BRANCH  13  14
HETATM   14  C   UNL     1      -6.242   1.189   0.000  1.00  0.00     0.034 A 
HETATM   15  N   UNL     1      -4.943   1.939   0.000  1.00  0.00    -0.279 NA
HETATM   16  C   UNL     1      -3.644   1.189   0.000  1.00  0.00     0.125 A 
HETATM   17  C   UNL     1      -3.644  -0.311   0.000  1.00  0.00     0.025 A 
HETATM   18  C   UNL     1      -4.943  -1.061   0.000  1.00  0.00     0.008 A 
HETATM   19  C   UNL     1      -6.242  -0.311   0.000  1.00  0.00     0.041 A 
BRANCH  17  20
HETATM   20  C   UNL     1      -2.345  -1.061   0.000  1.00  0.00     0.002 C 
HETATM   21  C   UNL     1      -1.046  -0.311   0.000  1.00  0.00     0.000 C 
ENDBRANCH  17  20
ENDBRANCH  13  14
ENDBRANCH  12  13
ENDBRANCH   2  12
TORSDOF 4
