REMARK  4 active torsions:
REMARK  status: ('A' for Active; 'I' for Inactive)
REMARK    1  A    between atoms: C_4  and  N_16 
REMARK    2  A    between atoms: C_5  and  O_17 
REMARK    3  A    between atoms: C_9  and  C_14 
REMARK       I    between atoms: C_14  and  N_16 
REMARK    4  A    between atoms: O_17  and  C_18 
ROOT
HETATM    1  C   UNL     1       2.873   5.524   0.000  1.00  0.00     0.206 C 
HETATM    2  O   UNL     1       2.873   7.024   0.000  1.00  0.00    -0.170 OA
HETATM    3  N   UNL     1       4.172   4.774   0.000  1.00  0.00    -0.229 NA
ENDROOT
BRANCH   3   4
HETATM    4  C   UNL     1       5.471   5.524   0.000  1.00  0.00     0.039 A 
HETATM    5  C   UNL     1       5.471   7.024   0.000  1.00  0.00     0.044 A 
HETATM    6  C   UNL     1       6.770   7.774   0.000  1.00  0.00     0.036 A 
HETATM    7  C   UNL     1       8.069   7.024   0.000  1.00  0.00     0.116 A 
HETATM    8  C   UNL     1       8.069   5.524   0.000  1.00  0.00     0.036 A 
HETATM    9  C   UNL     1       6.770   4.774   0.000  1.00  0.00     0.044 A 
BRANCH   7  10
HETATM   10  O   UNL     1       9.368   7.774   0.000  1.00  0.00    -0.357 OA
BRANCH  10  11
HETATM   11  C   UNL     1       9.368   9.274   0.000  1.00  0.00     0.142 C 
HETATM   12  C   UNL     1      10.667  10.024   0.000  1.00  0.00     0.035 C 
ENDBRANCH  10  11
ENDBRANCH   7  10
ENDBRANCH   3   4
BRANCH   1  13
HETATM   13  C   UNL     1       1.574   4.774   0.000  1.00  0.00     0.021 A 
HETATM   14  C   UNL     1       0.275   5.524   0.000  1.00  0.00     0.124 A 
HETATM   15  N   UNL     1      -1.024   4.774   0.000  1.00  0.00    -0.363 N 
HETATM   16  C   UNL     1      -1.024   3.275   0.000  1.00  0.00     0.098 A 
HETATM   17  C   UNL     1      -2.324   5.524   0.000  1.00  0.00     0.121 C 
HETATM   18  C   UNL     1       0.275   2.525   0.000  1.00  0.00     0.028 A 
HETATM   19  C   UNL     1       1.574   3.275   0.000  1.00  0.00     0.030 A 
ENDBRANCH   1  13
TORSDOF 4
