REMARK  4 active torsions:
REMARK  status: ('A' for Active; 'I' for Inactive)
REMARK    1  A    between atoms: C_6  and  S_7 
REMARK    2  A    between atoms: S_7  and  C_9 
REMARK    3  A    between atoms: C_10  and  O_11 
REMARK    4  A    between atoms: O_11  and  C_22 
ROOT
HETATM    1  C   UNL     1       0.951  -9.000   0.000  1.00  0.00     0.046 A 
HETATM    2  C   UNL     1       0.951 -10.500   0.000  1.00  0.00     0.058 A 
HETATM    3  C   UNL     1       2.250  -8.250   0.000  1.00  0.00     0.084 A 
HETATM    4  C   UNL     1       2.250 -11.250   0.000  1.00  0.00     0.093 A 
HETATM    5  C   UNL     1       3.549  -9.000   0.000  1.00  0.00     0.145 A 
HETATM    6  C   UNL     1       3.549 -10.500   0.000  1.00  0.00     0.149 A 
HETATM    7  N   UNL     1       4.976 -10.963   0.000  1.00  0.00    -0.100 NA
HETATM    8  O   UNL     1       5.439  -7.110   0.000  1.00  0.00    -0.055 OA
HETATM    9  N   UNL     1       4.976  -8.537   0.000  1.00  0.00    -0.061 N 
HETATM   10  O   UNL     1       5.857  -9.750   0.000  1.00  0.00    -0.100 OA
ENDROOT
BRANCH   3  11
HETATM   11  S   UNL     1       2.250  -6.750   0.000  1.00  0.00     0.187 S 
HETATM   12  O   UNL     1       0.750  -6.750   0.000  1.00  0.00    -0.222 OA
HETATM   13  O   UNL     1       3.750  -6.750   0.000  1.00  0.00    -0.222 OA
BRANCH  11  14
HETATM   14  C   UNL     1       2.250  -5.250   0.000  1.00  0.00     0.112 A 
HETATM   15  C   UNL     1       0.951  -4.500   0.000  1.00  0.00     0.016 A 
HETATM   16  C   UNL     1       0.951  -3.000   0.000  1.00  0.00     0.001 A 
HETATM   17  C   UNL     1       2.250  -2.250   0.000  1.00  0.00     0.000 A 
HETATM   18  C   UNL     1       3.549  -3.000   0.000  1.00  0.00     0.001 A 
HETATM   19  C   UNL     1       2.250  -0.750   0.000  1.00  0.00     0.000 C 
HETATM   20  C   UNL     1       3.549  -4.500   0.000  1.00  0.00     0.016 A 
ENDBRANCH  11  14
ENDBRANCH   3  11
BRANCH   4  21
HETATM   21  O   UNL     1       2.250 -12.750   0.000  1.00  0.00    -0.333 OA
BRANCH  21  22
HETATM   22  C   UNL     1       3.549 -13.500   0.000  1.00  0.00     0.149 C 
HETATM   23  C   UNL     1       3.549 -15.000   0.000  1.00  0.00     0.035 C 
ENDBRANCH  21  22
ENDBRANCH   4  21
TORSDOF 4
