REMARK  3 active torsions:
REMARK  status: ('A' for Active; 'I' for Inactive)
REMARK    1  A    between atoms: C_5  and  S_6 
REMARK    2  A    between atoms: S_6  and  C_7 
REMARK    3  A    between atoms: C_9  and  N_19 
ROOT
HETATM    1  C   UNL     1      -1.024  -7.774   0.000  1.00  0.00     0.043 A 
HETATM    2  C   UNL     1      -2.324  -8.524   0.000  1.00  0.00     0.057 A 
HETATM    3  C   UNL     1       0.275  -8.524   0.000  1.00  0.00     0.056 A 
HETATM    4  C   UNL     1      -2.324 -10.024   0.000  1.00  0.00     0.126 A 
HETATM    5  C   UNL     1      -1.024 -10.774   0.000  1.00  0.00     0.148 A 
HETATM    6  C   UNL     1       0.275 -10.024   0.000  1.00  0.00     0.135 A 
HETATM    7  N   UNL     1      -0.713 -12.242   0.000  1.00  0.00    -0.101 NA
HETATM    8  N   UNL     1       1.389 -11.028   0.000  1.00  0.00    -0.102 NA
HETATM    9  O   UNL     1       0.779 -12.399   0.000  1.00  0.00    -0.106 OA
ENDROOT
BRANCH   3  10
HETATM   10  S   UNL     1       1.573  -7.774   0.000  1.00  0.00     0.062 S 
HETATM   11  O   UNL     1       2.873  -8.524   0.000  1.00  0.00    -0.252 OA
BRANCH  10  12
HETATM   12  C   UNL     1       1.573  -6.274   0.000  1.00  0.00     0.083 A 
HETATM   13  C   UNL     1       0.275  -5.524   0.000  1.00  0.00     0.014 A 
HETATM   14  C   UNL     1       0.275  -4.024   0.000  1.00  0.00     0.001 A 
HETATM   15  C   UNL     1       1.573  -3.275   0.000  1.00  0.00     0.000 A 
HETATM   16  C   UNL     1       2.873  -4.024   0.000  1.00  0.00     0.001 A 
HETATM   17  C   UNL     1       1.573  -1.774   0.000  1.00  0.00     0.000 C 
HETATM   18  C   UNL     1       2.873  -5.524   0.000  1.00  0.00     0.014 A 
ENDBRANCH  10  12
ENDBRANCH   3  10
BRANCH   4  19
HETATM   19  N   UNL     1      -3.623 -10.774   0.000  1.00  0.00    -0.116 N 
HETATM   20  O   UNL     1      -4.922 -10.024   0.000  1.00  0.00    -0.532 OA
HETATM   21  O   UNL     1      -3.623 -12.274   0.000  1.00  0.00    -0.532 OA
ENDBRANCH   4  19
TORSDOF 3
