REMARK  1 active torsions:
REMARK  status: ('A' for Active; 'I' for Inactive)
REMARK    1  A    between atoms: C_2  and  C_10 
ROOT
HETATM    1  C   UNL     1      -4.695  -2.662   0.000  1.00  0.00     0.039 A 
HETATM    2  C   UNL     1      -3.482  -3.543   0.000  1.00  0.00     0.164 A 
HETATM    3  C   UNL     1      -5.909  -3.543   0.000  1.00  0.00     0.003 A 
HETATM    4  C   UNL     1      -3.945  -4.970   0.000  1.00  0.00     0.033 A 
HETATM    5  C   UNL     1      -5.445  -4.970   0.000  1.00  0.00     0.003 A 
HETATM    6  N   UNL     1      -2.732  -2.244   0.000  1.00  0.00    -0.243 NA
HETATM    7  C   UNL     1      -3.482  -0.945   0.000  1.00  0.00     0.186 A 
HETATM    8  O   UNL     1      -2.732   0.354   0.000  1.00  0.00    -0.174 OA
HETATM    9  C   UNL     1      -4.981  -0.945   0.000  1.00  0.00     0.076 A 
ENDROOT
BRANCH   2  10
HETATM   10  C   UNL     1      -2.111  -4.153   0.000  1.00  0.00     0.206 C 
HETATM   11  O   UNL     1      -0.898  -3.272   0.000  1.00  0.00    -0.646 OA
HETATM   12  O   UNL     1      -1.954  -5.645   0.000  1.00  0.00    -0.646 OA
ENDBRANCH   2  10
TORSDOF 1
