REMARK  3 active torsions:
REMARK  status: ('A' for Active; 'I' for Inactive)
REMARK    1  A    between atoms: C_4  and  C_5 
REMARK    2  A    between atoms: C_9  and  C_11 
REMARK    3  A    between atoms: C_15  and  C_17 
ROOT
HETATM    1  C   UNL     1      -2.699  -3.924   0.000  1.00  0.00    -0.019 A 
HETATM    2  C   UNL     1      -3.998  -3.174   0.000  1.00  0.00     0.028 A 
HETATM    3  C   UNL     1      -5.297  -3.924   0.000  1.00  0.00     0.026 A 
HETATM    4  C   UNL     1      -2.699  -5.424   0.000  1.00  0.00     0.028 A 
HETATM    5  C   UNL     1      -5.297  -5.424   0.000  1.00  0.00    -0.051 A 
HETATM    6  C   UNL     1      -3.998  -6.174   0.000  1.00  0.00     0.026 A 
ENDROOT
BRANCH   5   7
HETATM    7  C   UNL     1      -6.596  -6.174   0.000  1.00  0.00    -0.051 A 
HETATM    8  C   UNL     1      -6.596  -7.674   0.000  1.00  0.00     0.026 A 
HETATM    9  C   UNL     1      -7.895  -8.424   0.000  1.00  0.00     0.028 A 
HETATM   10  C   UNL     1      -9.194  -7.674   0.000  1.00  0.00    -0.019 A 
HETATM   11  C   UNL     1      -9.194  -6.174   0.000  1.00  0.00     0.028 A 
HETATM   12  C   UNL     1      -7.895  -5.424   0.000  1.00  0.00     0.026 A 
BRANCH  10  13
HETATM   13  C   UNL     1     -10.493  -8.424   0.000  1.00  0.00     0.110 A 
HETATM   14  O   UNL     1     -11.993  -8.424   0.000  1.00  0.00    -0.308 OA
HETATM   15  C   UNL     1     -11.243  -9.723   0.000  1.00  0.00     0.100 A 
HETATM   16  C   UNL     1     -11.243 -11.223   0.000  1.00  0.00     0.060 C 
ENDBRANCH  10  13
ENDBRANCH   5   7
BRANCH   1  17
HETATM   17  C   UNL     1      -1.399  -3.174   0.000  1.00  0.00     0.110 A 
HETATM   18  O   UNL     1      -0.649  -1.875   0.000  1.00  0.00    -0.308 OA
HETATM   19  C   UNL     1       0.101  -3.174   0.000  1.00  0.00     0.100 A 
HETATM   20  C   UNL     1       1.399  -3.924   0.000  1.00  0.00     0.060 C 
ENDBRANCH   1  17
TORSDOF 3
