REMARK  2 active torsions:
REMARK  status: ('A' for Active; 'I' for Inactive)
REMARK    1  A    between atoms: C_2  and  C_10 
REMARK    2  A    between atoms: C_9  and  C_10 
ROOT
HETATM    1  C   UNL     1       7.520  -0.475   0.000  1.00  0.00     0.199 A 
HETATM    2  C   UNL     1       4.922  -0.475   0.000  1.00  0.00     0.087 A 
HETATM    3  C   UNL     1       7.520  -1.975   0.000  1.00  0.00     0.095 A 
HETATM    4  C   UNL     1       4.922  -1.976   0.000  1.00  0.00     0.171 A 
HETATM    5  N   UNL     1       6.221   0.275   0.000  1.00  0.00    -0.165 N 
HETATM    6  N   UNL     1       6.221  -2.725   0.000  1.00  0.00    -0.265 NA
HETATM    7  O   UNL     1       8.819   0.275   0.000  1.00  0.00    -0.314 OA
HETATM    8  O   UNL     1       6.221   1.775   0.000  1.00  0.00    -0.078 OA
HETATM    9  C   UNL     1       8.819  -2.725   0.000  1.00  0.00     0.052 A 
HETATM   10  C   UNL     1      10.118  -1.975   0.000  1.00  0.00     0.036 A 
HETATM   11  C   UNL     1      11.417  -2.725   0.000  1.00  0.00     0.003 C 
HETATM   12  C   UNL     1      10.118  -0.475   0.000  1.00  0.00     0.151 A 
ENDROOT
BRANCH   2  13
HETATM   13  C   UNL     1       3.623   0.275   0.000  1.00  0.00    -0.028 C 
HETATM   14  C   UNL     1       3.623   1.774   0.000  1.00  0.00     0.028 C 
BRANCH  13  15
HETATM   15  C   UNL     1       2.324  -0.475   0.000  1.00  0.00     0.023 C 
HETATM   16  C   UNL     1       1.024   0.275   0.000  1.00  0.00     0.005 C 
ENDBRANCH  13  15
ENDBRANCH   2  13
TORSDOF 2
