REMARK  0 active torsions:
REMARK  status: ('A' for Active; 'I' for Inactive)
ROOT
HETATM    1  O   UNL     1       4.647   6.750   0.000  1.00  0.00    -0.191 OA
HETATM    2  O   UNL     1       4.647   0.750   0.000  1.00  0.00    -0.191 OA
HETATM    3  C   UNL     1       7.245   5.250   0.000  1.00  0.00     0.050 A 
HETATM    4  C   UNL     1       5.946   4.500   0.000  1.00  0.00     0.037 A 
HETATM    5  C   UNL     1       8.544   4.500   0.000  1.00  0.00     0.047 A 
HETATM    6  C   UNL     1       4.647   5.250   0.000  1.00  0.00     0.128 A 
HETATM    7  C   UNL     1       3.348   4.500   0.000  1.00  0.00     0.001 A 
HETATM    8  C   UNL     1       2.049   5.250   0.000  1.00  0.00     0.028 A 
HETATM    9  C   UNL     1       0.750   4.500   0.000  1.00  0.00     0.005 A 
HETATM   10  C   UNL     1       8.544   3.000   0.000  1.00  0.00     0.047 A 
HETATM   11  C   UNL     1       5.946   3.000   0.000  1.00  0.00     0.037 A 
HETATM   12  C   UNL     1       3.348   3.000   0.000  1.00  0.00     0.001 A 
HETATM   13  C   UNL     1       0.750   3.000   0.000  1.00  0.00     0.005 A 
HETATM   14  C   UNL     1       7.245   2.250   0.000  1.00  0.00     0.050 A 
HETATM   15  C   UNL     1       4.647   2.250   0.000  1.00  0.00     0.128 A 
HETATM   16  C   UNL     1       2.049   2.250   0.000  1.00  0.00     0.028 A 
HETATM   17  N   UNL     1       7.245   6.750   0.000  1.00  0.00    -0.105 NA
HETATM   18  N   UNL     1       7.245   0.750   0.000  1.00  0.00    -0.105 NA
ENDROOT
TORSDOF 0
