REMARK  2 active torsions:
REMARK  status: ('A' for Active; 'I' for Inactive)
REMARK    1  A    between atoms: N_1  and  N_9 
REMARK    2  A    between atoms: C_3  and  C_7 
ROOT
HETATM    1  N   UNL     1       5.946   3.000   0.000  1.00  0.00    -0.235 N 
HETATM    2  C   UNL     1       4.647   3.750   0.000  1.00  0.00     0.129 A 
HETATM    3  C   UNL     1       3.348   3.000   0.000  1.00  0.00     0.025 A 
HETATM    4  C   UNL     1       3.348   1.500   0.000  1.00  0.00     0.008 A 
HETATM    5  C   UNL     1       4.647   0.750   0.000  1.00  0.00     0.041 A 
HETATM    6  C   UNL     1       5.946   1.500   0.000  1.00  0.00     0.036 A 
HETATM    7  C   UNL     1       7.245   0.750   0.000  1.00  0.00     0.047 C 
ENDROOT
BRANCH   1   8
HETATM    8  N   UNL     1       7.245   3.750   0.000  1.00  0.00    -0.011 NA
HETATM    9  O   UNL     1       8.544   3.000   0.000  1.00  0.00    -0.041 OA
ENDBRANCH   1   8
BRANCH   3  10
HETATM   10  C   UNL     1       2.049   3.750   0.000  1.00  0.00     0.002 C 
HETATM   11  C   UNL     1       0.750   3.000   0.000  1.00  0.00     0.000 C 
ENDBRANCH   3  10
TORSDOF 2
