REMARK  2 active torsions:
REMARK  status: ('A' for Active; 'I' for Inactive)
REMARK    1  A    between atoms: N_4  and  C_12 
REMARK    2  A    between atoms: C_9  and  C_11 
ROOT
HETATM    1  N   UNL     1       1.500  -2.190   0.000  1.00  0.00     0.018 NA
HETATM    2  N   UNL     1       2.250  -3.489   0.000  1.00  0.00     0.002 NA
HETATM    3  N   UNL     1       2.504  -1.075   0.000  1.00  0.00    -0.142 NA
HETATM    4  N   UNL     1       3.717  -3.177   0.000  1.00  0.00    -0.229 N 
HETATM    5  C   UNL     1       3.874  -1.686   0.000  1.00  0.00     0.170 A 
ENDROOT
BRANCH   4   6
HETATM    6  C   UNL     1       4.832  -4.181   0.000  1.00  0.00     0.036 A 
HETATM    7  C   UNL     1       6.259  -3.718   0.000  1.00  0.00     0.041 A 
HETATM    8  C   UNL     1       7.373  -4.721   0.000  1.00  0.00     0.006 A 
HETATM    9  C   UNL     1       7.062  -6.189   0.000  1.00  0.00     0.001 A 
HETATM   10  C   UNL     1       5.635  -6.652   0.000  1.00  0.00     0.006 A 
HETATM   11  C   UNL     1       8.176  -7.192   0.000  1.00  0.00     0.000 C 
HETATM   12  C   UNL     1       4.520  -5.648   0.000  1.00  0.00     0.041 A 
ENDBRANCH   4   6
BRANCH   5  13
HETATM   13  C   UNL     1       5.173  -0.936   0.000  1.00  0.00     0.016 A 
HETATM   14  C   UNL     1       6.472  -1.686   0.000  1.00  0.00     0.029 A 
HETATM   15  C   UNL     1       7.771  -0.936   0.000  1.00  0.00     0.030 A 
HETATM   16  C   UNL     1       7.771   0.564   0.000  1.00  0.00     0.121 A 
HETATM   17  N   UNL     1       6.472   1.314   0.000  1.00  0.00    -0.291 NA
HETATM   18  C   UNL     1       5.173   0.564   0.000  1.00  0.00     0.145 A 
ENDBRANCH   5  13
TORSDOF 2
