REMARK  2 active torsions:
REMARK  status: ('A' for Active; 'I' for Inactive)
REMARK    1  A    between atoms: C_4  and  C_16 
REMARK    2  A    between atoms: C_11  and  N_15 
REMARK       I    between atoms: N_15  and  C_16 
ROOT
HETATM    1  N   UNL     1      -3.522  -5.899   0.000  1.00  0.00    -0.205 NA
HETATM    2  C   UNL     1      -3.522  -4.399   0.000  1.00  0.00     0.206 C 
HETATM    3  O   UNL     1      -4.821  -3.650   0.000  1.00  0.00    -0.170 OA
ENDROOT
BRANCH   1   4
HETATM    4  C   UNL     1      -4.821  -6.649   0.000  1.00  0.00     0.148 A 
HETATM    5  N   UNL     1      -4.821  -8.149   0.000  1.00  0.00    -0.216 NA
HETATM    6  C   UNL     1      -6.120  -8.899   0.000  1.00  0.00     0.140 A 
HETATM    7  N   UNL     1      -7.419  -8.149   0.000  1.00  0.00    -0.239 NA
HETATM    8  C   UNL     1      -6.120 -10.399   0.000  1.00  0.00     0.074 C 
HETATM    9  C   UNL     1      -7.419  -6.649   0.000  1.00  0.00     0.046 A 
HETATM   10  C   UNL     1      -6.120  -5.899   0.000  1.00  0.00     0.107 A 
HETATM   11  C   UNL     1      -8.718  -5.899   0.000  1.00  0.00     0.048 C 
ENDBRANCH   1   4
BRANCH   2  12
HETATM   12  C   UNL     1      -2.223  -3.650   0.000  1.00  0.00    -0.001 A 
HETATM   13  C   UNL     1      -2.223  -2.150   0.000  1.00  0.00     0.026 A 
HETATM   14  C   UNL     1      -0.924  -1.399   0.000  1.00  0.00     0.004 A 
HETATM   15  C   UNL     1       0.375  -2.150   0.000  1.00  0.00     0.001 A 
HETATM   16  C   UNL     1       0.375  -3.650   0.000  1.00  0.00     0.004 A 
HETATM   17  C   UNL     1      -0.924  -4.399   0.000  1.00  0.00     0.026 A 
ENDBRANCH   2  12
TORSDOF 2
