REMARK  7 active torsions:
REMARK  status: ('A' for Active; 'I' for Inactive)
REMARK    1  A    between atoms: N_9  and  C_26 
REMARK    2  A    between atoms: O_12  and  C_13 
REMARK    3  A    between atoms: O_12  and  C_27 
REMARK    4  A    between atoms: C_13  and  C_15 
REMARK    5  A    between atoms: C_15  and  O_16 
REMARK    6  A    between atoms: O_16  and  C_17 
REMARK    7  A    between atoms: C_26  and  C_27 
ROOT
HETATM    1  C   UNL     1     -10.731  -4.167   0.000  1.00  0.00     0.169 C 
ENDROOT
BRANCH   1   2
HETATM    2  O   UNL     1      -9.231  -4.167   0.000  1.00  0.00    -0.325 OA
BRANCH   2   3
HETATM    3  C   UNL     1      -8.481  -2.868   0.000  1.00  0.00     0.294 C 
HETATM    4  O   UNL     1      -9.231  -1.568   0.000  1.00  0.00    -0.188 OA
BRANCH   3   5
HETATM    5  C   UNL     1      -6.981  -2.868   0.000  1.00  0.00     0.147 C 
HETATM    6  C   UNL     1      -6.981  -1.367   0.000  1.00  0.00     0.035 C 
HETATM    7  C   UNL     1      -6.981  -4.367   0.000  1.00  0.00     0.035 C 
BRANCH   5   8
HETATM    8  O   UNL     1      -5.481  -2.868   0.000  1.00  0.00    -0.356 OA
BRANCH   8   9
HETATM    9  C   UNL     1      -4.731  -4.167   0.000  1.00  0.00     0.116 A 
HETATM   10  C   UNL     1      -3.231  -4.167   0.000  1.00  0.00     0.035 A 
HETATM   11  C   UNL     1      -2.481  -5.465   0.000  1.00  0.00     0.036 A 
HETATM   12  C   UNL     1      -3.231  -6.765   0.000  1.00  0.00     0.013 A 
HETATM   13  C   UNL     1      -4.731  -6.765   0.000  1.00  0.00     0.036 A 
HETATM   14 CL   UNL     1      -2.481  -8.064   0.000  1.00  0.00    -0.092 Cl
HETATM   15  C   UNL     1      -5.481  -5.466   0.000  1.00  0.00     0.035 A 
ENDBRANCH   8   9
ENDBRANCH   5   8
ENDBRANCH   3   5
ENDBRANCH   2   3
ENDBRANCH   1   2
BRANCH   1  16
HETATM   16  C   UNL     1     -11.481  -2.868   0.000  1.00  0.00     0.136 C 
BRANCH  16  17
HETATM   17  N   UNL     1     -12.981  -2.868   0.000  1.00  0.00    -0.320 N 
HETATM   18  C   UNL     1     -13.862  -1.654   0.000  1.00  0.00     0.135 A 
HETATM   19  C   UNL     1     -13.551  -0.187   0.000  1.00  0.00     0.216 A 
HETATM   20  C   UNL     1     -15.289  -2.118   0.000  1.00  0.00     0.163 A 
HETATM   21  N   UNL     1     -14.665   0.817   0.000  1.00  0.00    -0.268 N 
HETATM   22  O   UNL     1     -12.124   0.277   0.000  1.00  0.00    -0.169 OA
HETATM   23  C   UNL     1     -16.092   0.353   0.000  1.00  0.00     0.266 A 
HETATM   24  C   UNL     1     -14.353   2.284   0.000  1.00  0.00     0.136 C 
HETATM   25  O   UNL     1     -17.207   1.357   0.000  1.00  0.00    -0.150 OA
HETATM   26  N   UNL     1     -16.404  -1.114   0.000  1.00  0.00    -0.275 N 
HETATM   27  C   UNL     1     -17.830  -1.577   0.000  1.00  0.00     0.136 C 
HETATM   28  N   UNL     1     -15.289  -3.618   0.000  1.00  0.00    -0.228 NA
HETATM   29  C   UNL     1     -13.862  -4.081   0.000  1.00  0.00     0.233 A 
ENDBRANCH  16  17
ENDBRANCH   1  16
TORSDOF 7
