REMARK  4 active torsions:
REMARK  status: ('A' for Active; 'I' for Inactive)
REMARK    1  A    between atoms: O_1  and  C_4 
REMARK    2  A    between atoms: O_1  and  C_10 
REMARK    3  A    between atoms: O_2  and  C_5 
REMARK    4  A    between atoms: O_2  and  C_12 
ROOT
HETATM    1  C   UNL     1      -5.946  -0.750   0.000  1.00  0.00     0.059 A 
HETATM    2  C   UNL     1      -7.245  -1.500   0.000  1.00  0.00     0.122 A 
HETATM    3  C   UNL     1      -4.647  -1.500   0.000  1.00  0.00     0.122 A 
HETATM    4  C   UNL     1      -7.245  -3.000   0.000  1.00  0.00     0.030 A 
HETATM    5  C   UNL     1      -4.647  -3.000   0.000  1.00  0.00     0.030 A 
HETATM    6  C   UNL     1      -5.946  -3.750   0.000  1.00  0.00     0.005 A 
ENDROOT
BRANCH   2   7
HETATM    7  O   UNL     1      -8.544  -0.750   0.000  1.00  0.00    -0.302 OA
BRANCH   7   8
HETATM    8  C   UNL     1      -9.843  -1.500   0.000  1.00  0.00     0.580 C 
HETATM    9  N   UNL     1      -9.843  -3.000   0.000  1.00  0.00     0.688 N 
HETATM   10  O   UNL     1     -11.142  -0.750   0.000  1.00  0.00    -0.151 OA
ENDBRANCH   7   8
ENDBRANCH   2   7
BRANCH   3  11
HETATM   11  O   UNL     1      -3.348  -0.750   0.000  1.00  0.00    -0.302 OA
BRANCH  11  12
HETATM   12  C   UNL     1      -2.049  -1.500   0.000  1.00  0.00     0.580 C 
HETATM   13  O   UNL     1      -0.750  -0.750   0.000  1.00  0.00    -0.151 OA
HETATM   14  N   UNL     1      -2.049  -3.000   0.000  1.00  0.00     0.688 N 
ENDBRANCH  11  12
ENDBRANCH   3  11
TORSDOF 4
