REMARK  2 active torsions:
REMARK  status: ('A' for Active; 'I' for Inactive)
REMARK    1  A    between atoms: C_6  and  C_7 
REMARK    2  A    between atoms: C_12  and  C_13 
ROOT
HETATM    1  C   UNL     1       5.032   3.417   0.000  1.00  0.00     0.196 A 
HETATM    2  N   UNL     1       5.032   1.917   0.000  1.00  0.00    -0.151 NA
HETATM    3  N   UNL     1       6.458   3.880   0.000  1.00  0.00    -0.205 NA
HETATM    4  N   UNL     1       6.458   1.453   0.000  1.00  0.00    -0.257 N 
HETATM    5  H   UNL     1       6.922   0.027   0.000  1.00  0.00     0.191 HD
HETATM    6  C   UNL     1       7.340   2.667   0.000  1.00  0.00     0.171 A 
ENDROOT
BRANCH   1   7
HETATM    7  C   UNL     1       3.818   4.298   0.000  1.00  0.00     0.091 A 
HETATM    8  C   UNL     1       3.975   5.790   0.000  1.00  0.00     0.049 A 
HETATM    9  C   UNL     1       2.762   6.672   0.000  1.00  0.00     0.009 A 
HETATM   10  C   UNL     1       1.391   6.062   0.000  1.00  0.00     0.027 A 
HETATM   11  C   UNL     1       1.234   4.570   0.000  1.00  0.00     0.125 A 
HETATM   12  N   UNL     1       2.448   3.688   0.000  1.00  0.00    -0.272 NA
ENDBRANCH   1   7
BRANCH   6  13
HETATM   13  C   UNL     1       8.840   2.667   0.000  1.00  0.00     0.089 A 
HETATM   14  C   UNL     1       9.590   3.966   0.000  1.00  0.00     0.049 A 
HETATM   15  C   UNL     1      11.090   3.966   0.000  1.00  0.00     0.008 A 
HETATM   16  C   UNL     1      11.840   2.667   0.000  1.00  0.00     0.027 A 
HETATM   17  C   UNL     1      11.090   1.368   0.000  1.00  0.00     0.125 A 
HETATM   18  N   UNL     1       9.590   1.368   0.000  1.00  0.00    -0.272 NA
ENDBRANCH   6  13
TORSDOF 2
