REMARK  2 active torsions:
REMARK  status: ('A' for Active; 'I' for Inactive)
REMARK    1  A    between atoms: C_1  and  C_8 
REMARK    2  A    between atoms: C_5  and  C_15 
ROOT
HETATM    1  C   UNL     1      -6.654  -5.248   0.000  1.00  0.00     0.100 A 
HETATM    2  N   UNL     1      -6.190  -6.675   0.000  1.00  0.00    -0.097 N 
HETATM    3  C   UNL     1      -5.440  -4.366   0.000  1.00  0.00     0.017 A 
HETATM    4  N   UNL     1      -4.690  -6.675   0.000  1.00  0.00    -0.097 N 
HETATM    5  C   UNL     1      -4.227  -5.248   0.000  1.00  0.00     0.100 A 
HETATM    6  O   UNL     1      -3.808  -7.888   0.000  1.00  0.00    -0.061 OA
HETATM    7  O   UNL     1      -7.072  -7.888   0.000  1.00  0.00    -0.061 OA
HETATM    8  C   UNL     1      -5.440  -2.866   0.000  1.00  0.00     0.034 C 
ENDROOT
BRANCH   1   9
HETATM    9  C   UNL     1      -8.080  -4.785   0.000  1.00  0.00    -0.025 A 
HETATM   10  C   UNL     1      -9.195  -5.788   0.000  1.00  0.00     0.024 A 
HETATM   11  C   UNL     1     -10.621  -5.325   0.000  1.00  0.00     0.004 A 
HETATM   12  C   UNL     1     -10.933  -3.857   0.000  1.00  0.00     0.001 A 
HETATM   13  C   UNL     1      -9.819  -2.854   0.000  1.00  0.00     0.004 A 
HETATM   14  C   UNL     1      -8.392  -3.317   0.000  1.00  0.00     0.024 A 
ENDBRANCH   1   9
BRANCH   5  15
HETATM   15  C   UNL     1      -2.800  -4.785   0.000  1.00  0.00    -0.025 A 
HETATM   16  C   UNL     1      -2.488  -3.317   0.000  1.00  0.00     0.024 A 
HETATM   17  C   UNL     1      -1.062  -2.854   0.000  1.00  0.00     0.004 A 
HETATM   18  C   UNL     1       0.053  -3.857   0.000  1.00  0.00     0.001 A 
HETATM   19  C   UNL     1      -0.259  -5.325   0.000  1.00  0.00     0.004 A 
HETATM   20  C   UNL     1      -1.685  -5.788   0.000  1.00  0.00     0.024 A 
ENDBRANCH   5  15
TORSDOF 2
