REMARK  3 active torsions:
REMARK  status: ('A' for Active; 'I' for Inactive)
REMARK    1  A    between atoms: C_2  and  C_9 
REMARK    2  A    between atoms: C_4  and  N_5 
REMARK    3  A    between atoms: C_6  and  C_16 
ROOT
HETATM    1  O   UNL     1      -1.041  -2.742   0.000  1.00  0.00    -0.061 OA
HETATM    2  C   UNL     1      -0.259  -0.186   0.000  1.00  0.00     0.124 A 
HETATM    3  N   UNL     1       0.001  -1.663   0.000  1.00  0.00    -0.096 N 
HETATM    4  C   UNL     1       1.065   0.518   0.000  1.00  0.00     0.146 A 
HETATM    5  C   UNL     1       2.144  -0.524   0.000  1.00  0.00     0.110 A 
HETATM    6  N   UNL     1       1.487  -1.872   0.000  1.00  0.00    -0.099 N 
HETATM    7  O   UNL     1       2.191  -3.197   0.000  1.00  0.00    -0.061 OA
ENDROOT
BRANCH   2   8
HETATM    8  C   UNL     1      -1.607   0.471   0.000  1.00  0.00    -0.023 A 
HETATM    9  C   UNL     1      -2.851  -0.367   0.000  1.00  0.00     0.024 A 
HETATM   10  C   UNL     1      -4.199   0.290   0.000  1.00  0.00     0.004 A 
HETATM   11  C   UNL     1      -4.304   1.786   0.000  1.00  0.00     0.001 A 
HETATM   12  C   UNL     1      -3.060   2.625   0.000  1.00  0.00     0.004 A 
HETATM   13  C   UNL     1      -1.712   1.968   0.000  1.00  0.00     0.024 A 
ENDBRANCH   2   8
BRANCH   4  14
HETATM   14  N   UNL     1       1.274   2.003   0.000  1.00  0.00    -0.093 NA
HETATM   15  O   UNL     1       2.665   2.565   0.000  1.00  0.00    -0.061 OA
ENDBRANCH   4  14
BRANCH   5  16
HETATM   16  C   UNL     1       3.621  -0.264   0.000  1.00  0.00     0.050 C 
HETATM   17  C   UNL     1       4.586  -1.413   0.000  1.00  0.00     0.007 C 
ENDBRANCH   5  16
TORSDOF 3
