REMARK  2 active torsions:
REMARK  status: ('A' for Active; 'I' for Inactive)
REMARK    1  A    between atoms: C_7  and  N_16 
REMARK    2  A    between atoms: C_12  and  N_16 
ROOT
HETATM    1  H   UNL     1      -8.544  -0.750   0.000  1.00  0.00     0.179 HD
HETATM    2  N   UNL     1      -8.544  -2.250   0.000  1.00  0.00    -0.207 N 
HETATM    3  O   UNL     1      -8.544  -6.750   0.000  1.00  0.00    -0.173 OA
HETATM    4  N   UNL     1      -7.245  -4.500   0.000  1.00  0.00    -0.039 NA
HETATM    5  C   UNL     1      -7.245  -3.000   0.000  1.00  0.00     0.725 A 
HETATM    6  C   UNL     1      -9.843  -3.000   0.000  1.00  0.00     0.124 A 
HETATM    7  C   UNL     1      -9.843  -4.500   0.000  1.00  0.00     0.100 A 
HETATM    8  C   UNL     1      -8.544  -5.250   0.000  1.00  0.00     0.209 A 
ENDROOT
BRANCH   5   9
HETATM    9  N   UNL     1      -5.946  -2.250   0.000  1.00  0.00    -0.070 NA
BRANCH   9  10
HETATM   10  C   UNL     1      -4.647  -3.000   0.000  1.00  0.00     0.056 A 
HETATM   11  C   UNL     1      -3.348  -2.250   0.000  1.00  0.00     0.047 A 
HETATM   12  C   UNL     1      -2.049  -3.000   0.000  1.00  0.00     0.040 A 
HETATM   13  C   UNL     1      -2.049  -4.500   0.000  1.00  0.00     0.014 A 
HETATM   14 CL   UNL     1      -0.750  -5.250   0.000  1.00  0.00    -0.092 Cl
HETATM   15  C   UNL     1      -3.348  -5.250   0.000  1.00  0.00     0.040 A 
HETATM   16  C   UNL     1      -4.647  -4.500   0.000  1.00  0.00     0.047 A 
ENDBRANCH   9  10
ENDBRANCH   5   9
TORSDOF 2
