REMARK  8 active torsions:
REMARK  status: ('A' for Active; 'I' for Inactive)
REMARK    1  A    between atoms: C_3  and  C_18 
REMARK    2  A    between atoms: C_9  and  C_20 
REMARK    3  A    between atoms: C_12  and  C_13 
REMARK    4  A    between atoms: C_13  and  C_14 
REMARK    5  A    between atoms: C_14  and  C_15 
REMARK    6  A    between atoms: C_15  and  C_16 
REMARK    7  A    between atoms: C_16  and  C_17 
REMARK    8  A    between atoms: C_17  and  C_18 
ROOT
HETATM    1  O   UNL     1       8.819  -2.725   0.000  1.00  0.00    -0.306 OA
HETATM    2  O   UNL     1      10.118  -4.976   0.000  1.00  0.00    -0.280 OA
HETATM    3  C   UNL     1      10.118  -1.976   0.000  1.00  0.00     0.080 A 
HETATM    4  C   UNL     1      11.417  -2.725   0.000  1.00  0.00     0.086 A 
HETATM    5  C   UNL     1      11.417  -4.226   0.000  1.00  0.00     0.200 A 
HETATM    6  O   UNL     1      12.716  -4.976   0.000  1.00  0.00    -0.310 OA
HETATM    7  O   UNL     1      12.716  -0.475   0.000  1.00  0.00    -0.195 OA
HETATM    8  C   UNL     1      12.716  -1.976   0.000  1.00  0.00     0.117 A 
HETATM    9  C   UNL     1      14.015  -4.226   0.000  1.00  0.00     0.163 A 
HETATM   10  C   UNL     1      14.015  -2.725   0.000  1.00  0.00     0.087 A 
HETATM   11  C   UNL     1       8.819  -4.226   0.000  1.00  0.00     0.305 A 
ENDROOT
BRANCH   3  12
HETATM   12  C   UNL     1      10.118  -0.475   0.000  1.00  0.00     0.051 C 
BRANCH  12  13
HETATM   13  C   UNL     1       8.819   0.275   0.000  1.00  0.00     0.007 C 
BRANCH  13  14
HETATM   14  C   UNL     1       7.520  -0.475   0.000  1.00  0.00     0.000 C 
BRANCH  14  15
HETATM   15  C   UNL     1       6.221   0.275   0.000  1.00  0.00     0.000 C 
BRANCH  15  16
HETATM   16  C   UNL     1       6.221   1.774   0.000  1.00  0.00     0.000 C 
BRANCH  16  17
HETATM   17  C   UNL     1       4.922   2.525   0.000  1.00  0.00     0.000 C 
BRANCH  17  18
HETATM   18  C   UNL     1       3.623   1.774   0.000  1.00  0.00     0.000 C 
HETATM   19  C   UNL     1       2.324   2.525   0.000  1.00  0.00     0.000 C 
ENDBRANCH  17  18
ENDBRANCH  16  17
ENDBRANCH  15  16
ENDBRANCH  14  15
ENDBRANCH  13  14
ENDBRANCH  12  13
ENDBRANCH   3  12
BRANCH   9  20
HETATM   20  C   UNL     1      15.314  -4.976   0.000  1.00  0.00     0.213 C 
HETATM   21  O   UNL     1      16.613  -4.226   0.000  1.00  0.00    -0.218 OA
ENDBRANCH   9  20
TORSDOF 8
