REMARK  2 active torsions:
REMARK  status: ('A' for Active; 'I' for Inactive)
REMARK    1  A    between atoms: C_7  and  C_10 
REMARK       I    between atoms: C_10  and  N_14 
REMARK    2  A    between atoms: C_11  and  N_14 
ROOT
HETATM    1 CL   UNL     1       0.750   3.348   0.000  1.00  0.00    -0.091 Cl
HETATM    2  C   UNL     1       2.250   3.348   0.000  1.00  0.00     0.019 A 
HETATM    3  C   UNL     1       3.000   4.647   0.000  1.00  0.00     0.039 A 
HETATM    4  C   UNL     1       3.000   2.049   0.000  1.00  0.00     0.071 A 
HETATM    5  C   UNL     1       4.500   4.647   0.000  1.00  0.00     0.036 A 
HETATM    6  C   UNL     1       4.500   2.049   0.000  1.00  0.00     0.040 A 
HETATM    7  C   UNL     1       5.250   3.348   0.000  1.00  0.00     0.029 A 
HETATM    8 CL   UNL     1       5.250   0.750   0.000  1.00  0.00    -0.087 Cl
ENDROOT
BRANCH   7   9
HETATM    9  C   UNL     1       6.750   3.348   0.000  1.00  0.00     0.210 C 
HETATM   10  O   UNL     1       7.500   4.647   0.000  1.00  0.00    -0.169 OA
HETATM   11  N   UNL     1       7.500   2.049   0.000  1.00  0.00    -0.205 NA
BRANCH  11  12
HETATM   12  C   UNL     1       9.000   2.049   0.000  1.00  0.00     0.150 A 
HETATM   13  N   UNL     1       9.882   3.263   0.000  1.00  0.00    -0.199 NA
HETATM   14  S   UNL     1      11.308   2.799   0.000  1.00  0.00    -0.012 SA
HETATM   15  C   UNL     1      11.308   1.299   0.000  1.00  0.00     0.090 A 
HETATM   16  C   UNL     1       9.882   0.836   0.000  1.00  0.00     0.080 A 
ENDBRANCH  11  12
ENDBRANCH   7   9
TORSDOF 2
