REMARK  2 active torsions:
REMARK  status: ('A' for Active; 'I' for Inactive)
REMARK    1  A    between atoms: N_1  and  C_9 
REMARK    2  A    between atoms: C_11  and  C_13 
ROOT
HETATM    1  C   UNL     1       6.221   0.275   0.000  1.00  0.00     0.093 A 
HETATM    2  C   UNL     1       4.922   1.024   0.000  1.00  0.00     0.116 A 
HETATM    3  C   UNL     1       6.221  -1.226   0.000  1.00  0.00     0.017 A 
HETATM    4  C   UNL     1       4.922  -1.976   0.000  1.00  0.00     0.044 A 
HETATM    5  C   UNL     1       3.623   0.275   0.000  1.00  0.00     0.064 A 
HETATM    6  C   UNL     1       3.623  -1.226   0.000  1.00  0.00     0.040 A 
HETATM    7  O   UNL     1       4.922   2.525   0.000  1.00  0.00    -0.195 OA
ENDROOT
BRANCH   3   8
HETATM    8  N   UNL     1       7.520  -1.976   0.000  1.00  0.00    -0.354 N 
HETATM    9  C   UNL     1       8.819  -1.226   0.000  1.00  0.00     0.101 A 
HETATM   10  C   UNL     1      10.118  -1.976   0.000  1.00  0.00     0.024 A 
HETATM   11  C   UNL     1      10.118  -3.475   0.000  1.00  0.00     0.004 A 
HETATM   12  C   UNL     1       8.819  -4.226   0.000  1.00  0.00     0.024 A 
HETATM   13  C   UNL     1       7.520  -3.475   0.000  1.00  0.00     0.101 A 
ENDBRANCH   3   8
BRANCH   5  14
HETATM   14  C   UNL     1       2.324   1.024   0.000  1.00  0.00     0.208 C 
HETATM   15  O   UNL     1       2.324   2.525   0.000  1.00  0.00    -0.644 OA
HETATM   16  O   UNL     1       1.024   0.275   0.000  1.00  0.00    -0.644 OA
ENDBRANCH   5  14
TORSDOF 2
