REMARK  4 active torsions:
REMARK  status: ('A' for Active; 'I' for Inactive)
REMARK    1  A    between atoms: C_4  and  N_8 
REMARK    2  A    between atoms: N_8  and  C_10 
REMARK    3  A    between atoms: C_10  and  C_11 
REMARK    4  A    between atoms: C_11  and  C_12 
ROOT
HETATM    1  C   UNL     1      -6.221   1.226   0.000  1.00  0.00     0.239 A 
HETATM    2  C   UNL     1      -8.819   1.226   0.000  1.00  0.00     0.126 A 
HETATM    3  C   UNL     1      -8.819  -0.275   0.000  1.00  0.00     0.121 A 
HETATM    4  C   UNL     1      -7.520  -1.024   0.000  1.00  0.00     0.123 A 
HETATM    5 CL   UNL     1     -10.118   1.975   0.000  1.00  0.00    -0.066 Cl
HETATM    6  N   UNL     1      -7.520   1.976   0.000  1.00  0.00    -0.207 NA
HETATM    7  N   UNL     1      -6.221  -0.275   0.000  1.00  0.00    -0.202 NA
HETATM    8  N   UNL     1      -4.922   1.976   0.000  1.00  0.00    -0.060 NA
ENDROOT
BRANCH   4   9
HETATM    9  N   UNL     1      -7.520  -2.525   0.000  1.00  0.00    -0.362 N 
HETATM   10  H   UNL     1      -8.819  -3.275   0.000  1.00  0.00     0.162 HD
BRANCH   9  11
HETATM   11  C   UNL     1      -6.221  -3.275   0.000  1.00  0.00     0.099 C 
BRANCH  11  12
HETATM   12  C   UNL     1      -4.922  -2.525   0.000  1.00  0.00     0.024 C 
BRANCH  12  13
HETATM   13  C   UNL     1      -3.623  -3.275   0.000  1.00  0.00     0.002 C 
HETATM   14  C   UNL     1      -2.324  -2.525   0.000  1.00  0.00     0.000 C 
ENDBRANCH  12  13
ENDBRANCH  11  12
ENDBRANCH   9  11
ENDBRANCH   4   9
TORSDOF 4
