REMARK  8 active torsions:
REMARK  status: ('A' for Active; 'I' for Inactive)
REMARK    1  A    between atoms: C_5  and  C_13 
REMARK    2  A    between atoms: C_8  and  C_15 
REMARK    3  A    between atoms: O_9  and  C_10 
REMARK    4  A    between atoms: O_9  and  C_13 
REMARK    5  A    between atoms: C_15  and  C_16 
REMARK    6  A    between atoms: C_16  and  C_17 
REMARK    7  A    between atoms: C_17  and  O_19 
REMARK    8  A    between atoms: O_19  and  C_20 
ROOT
HETATM    1  N   UNL     1      -9.843  -4.500   0.000  1.00  0.00    -0.339 N 
HETATM    2  H   UNL     1      -9.843  -3.000   0.000  1.00  0.00     0.167 HD
HETATM    3  O   UNL     1      -9.843  -9.000   0.000  1.00  0.00    -0.169 OA
HETATM    4  N   UNL     1      -8.544  -6.750   0.000  1.00  0.00    -0.207 NA
HETATM    5  C   UNL     1     -11.142  -5.250   0.000  1.00  0.00     0.106 A 
HETATM    6  C   UNL     1     -11.142  -6.750   0.000  1.00  0.00     0.042 A 
HETATM    7  C   UNL     1      -9.843  -7.500   0.000  1.00  0.00     0.211 A 
HETATM    8  C   UNL     1      -8.544  -5.250   0.000  1.00  0.00     0.119 A 
HETATM    9  C   UNL     1     -12.441  -7.500   0.000  1.00  0.00     0.036 C 
ENDROOT
BRANCH   8  10
HETATM   10  C   UNL     1      -7.245  -4.500   0.000  1.00  0.00     0.069 C 
BRANCH  10  11
HETATM   11  C   UNL     1      -5.946  -5.250   0.000  1.00  0.00     0.072 C 
BRANCH  11  12
HETATM   12  C   UNL     1      -4.647  -4.500   0.000  1.00  0.00     0.270 C 
HETATM   13  O   UNL     1      -4.647  -3.000   0.000  1.00  0.00    -0.190 OA
BRANCH  12  14
HETATM   14  O   UNL     1      -3.348  -5.250   0.000  1.00  0.00    -0.329 OA
BRANCH  14  15
HETATM   15  C   UNL     1      -2.049  -4.500   0.000  1.00  0.00     0.145 C 
HETATM   16  C   UNL     1      -0.750  -5.250   0.000  1.00  0.00     0.035 C 
ENDBRANCH  14  15
ENDBRANCH  12  14
ENDBRANCH  11  12
ENDBRANCH  10  11
ENDBRANCH   8  10
BRANCH   5  17
HETATM   17  C   UNL     1     -12.441  -4.500   0.000  1.00  0.00     0.244 C 
HETATM   18  O   UNL     1     -13.740  -5.250   0.000  1.00  0.00    -0.162 OA
BRANCH  17  19
HETATM   19  O   UNL     1     -12.441  -3.000   0.000  1.00  0.00    -0.308 OA
BRANCH  19  20
HETATM   20  C   UNL     1     -11.142  -2.250   0.000  1.00  0.00     0.151 C 
HETATM   21  C   UNL     1     -11.142  -0.750   0.000  1.00  0.00     0.035 C 
ENDBRANCH  19  20
ENDBRANCH  17  19
ENDBRANCH   5  17
TORSDOF 8
