REMARK  3 active torsions:
REMARK  status: ('A' for Active; 'I' for Inactive)
REMARK    1  A    between atoms: C_3  and  N_13 
REMARK    2  A    between atoms: C_8  and  N_13 
REMARK    3  A    between atoms: C_11  and  N_14 
REMARK       I    between atoms: N_14  and  C_15 
ROOT
HETATM    1  C   UNL     1       4.172   6.274   0.000  1.00  0.00     0.047 A 
HETATM    2  C   UNL     1       5.471   5.524   0.000  1.00  0.00     0.037 A 
HETATM    3  C   UNL     1       2.873   5.524   0.000  1.00  0.00     0.047 A 
HETATM    4  C   UNL     1       5.471   4.024   0.000  1.00  0.00     0.047 A 
HETATM    5  C   UNL     1       2.873   4.024   0.000  1.00  0.00     0.041 A 
HETATM    6  C   UNL     1       4.172   3.275   0.000  1.00  0.00     0.047 A 
ENDROOT
BRANCH   2   7
HETATM    7  N   UNL     1       6.770   6.274   0.000  1.00  0.00    -0.263 NA
BRANCH   7   8
HETATM    8  C   UNL     1       6.770   7.774   0.000  1.00  0.00     0.036 A 
HETATM    9  C   UNL     1       5.471   8.524   0.000  1.00  0.00     0.041 A 
HETATM   10  C   UNL     1       5.471  10.024   0.000  1.00  0.00     0.006 A 
HETATM   11  C   UNL     1       6.770  10.774   0.000  1.00  0.00     0.001 A 
HETATM   12  C   UNL     1       8.069  10.024   0.000  1.00  0.00     0.006 A 
HETATM   13  C   UNL     1       8.069   8.524   0.000  1.00  0.00     0.041 A 
ENDBRANCH   7   8
ENDBRANCH   2   7
BRANCH   5  14
HETATM   14  N   UNL     1       1.574   3.275   0.000  1.00  0.00    -0.217 NA
HETATM   15  C   UNL     1       0.275   4.024   0.000  1.00  0.00     0.286 C 
HETATM   16  O   UNL     1      -1.024   3.275   0.000  1.00  0.00    -0.153 OA
HETATM   17  N   UNL     1       0.275   5.524   0.000  1.00  0.00    -0.052 NA
ENDBRANCH   5  14
TORSDOF 3
