REMARK  2 active torsions:
REMARK  status: ('A' for Active; 'I' for Inactive)
REMARK    1  A    between atoms: C_6  and  N_24 
REMARK    2  A    between atoms: C_7  and  N_24 
ROOT
HETATM    1  C   UNL     1       6.221  -3.275   0.000  1.00  0.00     0.055 A 
HETATM    2  C   UNL     1       7.520  -2.525   0.000  1.00  0.00     0.050 A 
HETATM    3  C   UNL     1       6.221  -4.774   0.000  1.00  0.00    -0.008 A 
HETATM    4  C   UNL     1       4.922  -5.524   0.000  1.00  0.00     0.028 A 
HETATM    5  C   UNL     1       4.922  -7.024   0.000  1.00  0.00     0.011 A 
HETATM    6  C   UNL     1       8.819  -3.275   0.000  1.00  0.00     0.032 A 
HETATM    7  C   UNL     1       7.520  -5.524   0.000  1.00  0.00     0.006 A 
HETATM    8  C   UNL     1       6.221  -7.774   0.000  1.00  0.00     0.046 A 
HETATM    9  C   UNL     1       8.819  -4.774   0.000  1.00  0.00    -0.024 A 
HETATM   10  C   UNL     1       7.520  -7.024   0.000  1.00  0.00     0.058 A 
HETATM   11  C   UNL     1      10.118  -7.024   0.000  1.00  0.00     0.054 A 
HETATM   12  C   UNL     1      10.118  -5.524   0.000  1.00  0.00    -0.013 A 
HETATM   13  C   UNL     1      11.417  -7.774   0.000  1.00  0.00     0.045 A 
HETATM   14  C   UNL     1      11.417  -4.774   0.000  1.00  0.00     0.027 A 
HETATM   15  C   UNL     1      12.716  -7.024   0.000  1.00  0.00     0.007 A 
HETATM   16  C   UNL     1      12.716  -5.524   0.000  1.00  0.00     0.005 A 
HETATM   17  N   UNL     1       8.819  -7.774   0.000  1.00  0.00    -0.255 NA
ENDROOT
BRANCH   1  18
HETATM   18  N   UNL     1       4.922  -2.525   0.000  1.00  0.00    -0.259 NA
BRANCH  18  19
HETATM   19  C   UNL     1       4.922  -1.024   0.000  1.00  0.00     0.036 A 
HETATM   20  C   UNL     1       6.221  -0.275   0.000  1.00  0.00     0.041 A 
HETATM   21  C   UNL     1       6.221   1.226   0.000  1.00  0.00     0.006 A 
HETATM   22  C   UNL     1       4.922   1.976   0.000  1.00  0.00     0.001 A 
HETATM   23  C   UNL     1       3.623   1.226   0.000  1.00  0.00     0.006 A 
HETATM   24  C   UNL     1       3.623  -0.275   0.000  1.00  0.00     0.041 A 
ENDBRANCH  18  19
ENDBRANCH   1  18
TORSDOF 2
