REMARK  0 active torsions:
REMARK  status: ('A' for Active; 'I' for Inactive)
ROOT
HETATM    1  C   UNL     1      -0.514   4.008   0.000  1.00  0.00     0.025 A 
HETATM    2  C   UNL     1      -0.050   2.582   0.000  1.00  0.00     0.007 A 
HETATM    3  C   UNL     1       0.700   4.890   0.000  1.00  0.00    -0.003 A 
HETATM    4  H   UNL     1       4.163   5.307   0.000  1.00  0.00     0.287 HD
HETATM    5  C   UNL     1       1.913   4.008   0.000  1.00  0.00     0.156 A 
HETATM    6  C   UNL     1       1.450   2.582   0.000  1.00  0.00     0.035 A 
HETATM    7  N   UNL     1       2.663   5.307   0.000  1.00  0.00    -0.321 N 
HETATM    8  O   UNL     1       2.663   7.905   0.000  1.00  0.00    -0.171 OA
HETATM    9  C   UNL     1       1.913   6.606   0.000  1.00  0.00     0.200 A 
HETATM   10 CL   UNL     1      -0.337   7.905   0.000  1.00  0.00    -0.079 Cl
HETATM   11  C   UNL     1       3.284   3.398   0.000  1.00  0.00     0.176 A 
HETATM   12  O   UNL     1       4.497   4.280   0.000  1.00  0.00    -0.758 OA
HETATM   13  O   UNL     1       3.440   1.906   0.000  1.00  0.00    -0.648 OA
HETATM   14  C   UNL     1       0.413   6.606   0.000  1.00  0.00     0.094 A 
ENDROOT
TORSDOF 0
