REMARK  1 active torsions:
REMARK  status: ('A' for Active; 'I' for Inactive)
REMARK    1  A    between atoms: C_22  and  N_23 
ROOT
HETATM    1 CL   UNL     1      -6.770  -9.274   0.000  1.00  0.00    -0.086 Cl
HETATM    2  N   UNL     1      -4.172  -7.774   0.000  1.00  0.00    -0.326 N 
HETATM    3  S   UNL     1      -4.172  -4.774   0.000  1.00  0.00    -0.089 SA
HETATM    4  C   UNL     1      -0.275  -2.525   0.000  1.00  0.00     0.005 A 
HETATM    5  C   UNL     1      -1.574  -3.275   0.000  1.00  0.00     0.026 A 
HETATM    6  C   UNL     1       1.024  -3.275   0.000  1.00  0.00     0.005 A 
HETATM    7  C   UNL     1       1.024  -4.774   0.000  1.00  0.00     0.022 A 
HETATM    8  C   UNL     1      -1.574  -4.774   0.000  1.00  0.00    -0.022 A 
HETATM    9  C   UNL     1      -0.275  -5.524   0.000  1.00  0.00    -0.043 A 
HETATM   10  C   UNL     1      -2.873  -5.524   0.000  1.00  0.00     0.040 A 
HETATM   11  C   UNL     1      -0.275  -7.024   0.000  1.00  0.00     0.051 A 
HETATM   12  C   UNL     1      -2.873  -7.024   0.000  1.00  0.00     0.063 A 
HETATM   13  C   UNL     1      -1.573  -7.774   0.000  1.00  0.00     0.010 A 
HETATM   14  C   UNL     1      -6.770  -4.774   0.000  1.00  0.00     0.035 A 
HETATM   15  C   UNL     1      -8.069  -5.524   0.000  1.00  0.00     0.011 A 
HETATM   16  C   UNL     1      -5.471  -5.524   0.000  1.00  0.00     0.024 A 
HETATM   17  C   UNL     1      -5.471  -7.024   0.000  1.00  0.00     0.069 A 
HETATM   18  C   UNL     1      -8.069  -7.024   0.000  1.00  0.00     0.040 A 
HETATM   19  C   UNL     1      -6.770  -7.774   0.000  1.00  0.00     0.051 A 
HETATM   20  C   UNL     1      -4.172  -9.274   0.000  1.00  0.00     0.112 A 
HETATM   21  C   UNL     1      -2.873 -10.024   0.000  1.00  0.00     0.068 A 
HETATM   22  C   UNL     1      -1.574  -9.274   0.000  1.00  0.00     0.033 A 
ENDROOT
BRANCH  22  23
HETATM   23  N   UNL     1      -0.275 -10.024   0.000  1.00  0.00    -0.348 N 
HETATM   24  C   UNL     1       1.024  -9.274   0.000  1.00  0.00     0.125 C 
HETATM   25  C   UNL     1      -0.275 -11.524   0.000  1.00  0.00     0.125 C 
ENDBRANCH  22  23
TORSDOF 1
