REMARK  4 active torsions:
REMARK  status: ('A' for Active; 'I' for Inactive)
REMARK    1  A    between atoms: C_2  and  N_16 
REMARK    2  A    between atoms: C_5  and  O_7 
REMARK    3  A    between atoms: C_6  and  N_19 
REMARK    4  A    between atoms: C_9  and  N_19 
ROOT
HETATM    1  C   UNL     1      -1.650   5.109   0.000  1.00  0.00     0.053 A 
HETATM    2  C   UNL     1      -0.900   6.409   0.000  1.00  0.00     0.088 A 
HETATM    3  C   UNL     1      -0.900   3.810   0.000  1.00  0.00     0.058 A 
HETATM    4  C   UNL     1       0.600   6.409   0.000  1.00  0.00     0.093 A 
HETATM    5  C   UNL     1       0.600   3.810   0.000  1.00  0.00     0.086 A 
HETATM    6  C   UNL     1       1.350   5.109   0.000  1.00  0.00     0.086 A 
ENDROOT
BRANCH   6   7
HETATM    7  N   UNL     1       2.850   5.109   0.000  1.00  0.00    -0.209 NA
BRANCH   7   8
HETATM    8  C   UNL     1       3.600   6.409   0.000  1.00  0.00     0.251 A 
HETATM    9  O   UNL     1       2.850   7.708   0.000  1.00  0.00    -0.279 OA
HETATM   10  C   UNL     1       3.608   9.163   0.000  1.00  0.00     0.103 A 
HETATM   11  C   UNL     1       5.100   9.007   0.000  1.00  0.00     0.113 A 
HETATM   12  C   UNL     1       3.296  10.631   0.000  1.00  0.00     0.086 A 
HETATM   13  O   UNL     1       5.710  10.377   0.000  1.00  0.00    -0.331 OA
HETATM   14  C   UNL     1       5.850   7.708   0.000  1.00  0.00     0.158 A 
HETATM   15  C   UNL     1       4.595  11.381   0.000  1.00  0.00     0.155 A 
HETATM   16  N   UNL     1       5.100   6.409   0.000  1.00  0.00    -0.306 N 
HETATM   17  C   UNL     1       5.850   5.109   0.000  1.00  0.00     0.129 C 
ENDBRANCH   7   8
ENDBRANCH   6   7
BRANCH   5  18
HETATM   18  O   UNL     1       1.350   2.511   0.000  1.00  0.00    -0.331 OA
HETATM   19  C   UNL     1       2.850   2.511   0.000  1.00  0.00     0.181 C 
ENDBRANCH   5  18
BRANCH   2  20
HETATM   20  N   UNL     1      -1.650   7.708   0.000  1.00  0.00    -0.122 N 
HETATM   21  O   UNL     1      -3.150   7.708   0.000  1.00  0.00    -0.532 OA
HETATM   22  O   UNL     1      -0.900   9.007   0.000  1.00  0.00    -0.532 OA
ENDBRANCH   2  20
TORSDOF 4
