REMARK  4 active torsions:
REMARK  status: ('A' for Active; 'I' for Inactive)
REMARK    1  A    between atoms: C_1  and  C_18 
REMARK    2  A    between atoms: C_6  and  C_7 
REMARK       I    between atoms: C_7  and  N_22 
REMARK    3  A    between atoms: C_9  and  N_22 
REMARK    4  A    between atoms: C_14  and  S_17 
ROOT
HETATM    1  C   UNL     1       8.250   3.549   0.000  1.00  0.00     0.204 C 
HETATM    2  O   UNL     1       9.000   4.848   0.000  1.00  0.00    -0.170 OA
HETATM    3  N   UNL     1       9.000   2.250   0.000  1.00  0.00    -0.229 NA
ENDROOT
BRANCH   1   4
HETATM    4  C   UNL     1       6.750   3.549   0.000  1.00  0.00    -0.001 A 
HETATM    5  C   UNL     1       6.000   4.848   0.000  1.00  0.00     0.026 A 
HETATM    6  C   UNL     1       4.500   4.848   0.000  1.00  0.00     0.004 A 
HETATM    7  C   UNL     1       3.750   3.549   0.000  1.00  0.00     0.001 A 
HETATM    8  C   UNL     1       4.500   2.250   0.000  1.00  0.00     0.004 A 
HETATM    9  C   UNL     1       6.000   2.250   0.000  1.00  0.00     0.026 A 
BRANCH   7  10
HETATM   10  C   UNL     1       2.250   3.549   0.000  1.00  0.00     0.000 C 
HETATM   11  C   UNL     1       2.250   5.049   0.000  1.00  0.00     0.000 C 
HETATM   12  C   UNL     1       0.750   3.549   0.000  1.00  0.00     0.000 C 
HETATM   13  C   UNL     1       2.250   2.049   0.000  1.00  0.00     0.000 C 
ENDBRANCH   7  10
ENDBRANCH   1   4
BRANCH   3  14
HETATM   14  C   UNL     1      10.500   2.250   0.000  1.00  0.00     0.039 A 
HETATM   15  C   UNL     1      11.250   3.549   0.000  1.00  0.00     0.043 A 
HETATM   16  C   UNL     1      12.750   3.549   0.000  1.00  0.00     0.024 A 
HETATM   17  C   UNL     1      13.500   2.250   0.000  1.00  0.00     0.132 A 
HETATM   18  C   UNL     1      12.750   0.951   0.000  1.00  0.00     0.024 A 
HETATM   19  C   UNL     1      11.250   0.951   0.000  1.00  0.00     0.043 A 
BRANCH  17  20
HETATM   20  S   UNL     1      15.000   2.250   0.000  1.00  0.00     0.281 S 
HETATM   21  O   UNL     1      15.000   3.750   0.000  1.00  0.00    -0.201 OA
HETATM   22  O   UNL     1      15.000   0.750   0.000  1.00  0.00    -0.201 OA
HETATM   23  N   UNL     1      16.500   2.250   0.000  1.00  0.00    -0.047 N 
ENDBRANCH  17  20
ENDBRANCH   3  14
TORSDOF 4
