REMARK  3 active torsions:
REMARK  status: ('A' for Active; 'I' for Inactive)
REMARK    1  A    between atoms: N_1  and  S_2 
REMARK    2  A    between atoms: S_2  and  N_14 
REMARK    3  A    between atoms: C_5  and  N_14 
ROOT
HETATM    1  C   UNL     1       6.174  -1.198   0.000  1.00  0.00     0.055 A 
HETATM    2  C   UNL     1       6.924  -2.498   0.000  1.00  0.00     0.071 A 
HETATM    3  C   UNL     1       6.924   0.101   0.000  1.00  0.00     0.043 A 
HETATM    4  C   UNL     1       8.424   0.101   0.000  1.00  0.00     0.011 A 
HETATM    5  C   UNL     1       8.424  -2.498   0.000  1.00  0.00    -0.004 A 
HETATM    6  C   UNL     1       9.174  -1.198   0.000  1.00  0.00     0.030 A 
HETATM    7 BR   UNL     1       9.174  -3.797   0.000  1.00  0.00    -0.058 Br
ENDROOT
BRANCH   1   8
HETATM    8  N   UNL     1       4.674  -1.198   0.000  1.00  0.00    -0.153 NA
BRANCH   8   9
HETATM    9  S   UNL     1       3.924   0.101   0.000  1.00  0.00     0.344 S 
HETATM   10  O   UNL     1       5.223   0.851   0.000  1.00  0.00    -0.180 OA
HETATM   11  O   UNL     1       2.625  -0.649   0.000  1.00  0.00    -0.180 OA
BRANCH   9  12
HETATM   12  N   UNL     1       3.174   1.399   0.000  1.00  0.00    -0.256 N 
HETATM   13  C   UNL     1       3.924   2.699   0.000  1.00  0.00     0.140 C 
HETATM   14  C   UNL     1       1.674   1.399   0.000  1.00  0.00     0.140 C 
ENDBRANCH   9  12
ENDBRANCH   8   9
ENDBRANCH   1   8
TORSDOF 3
