REMARK  5 active torsions:
REMARK  status: ('A' for Active; 'I' for Inactive)
REMARK    1  A    between atoms: N_12  and  C_16 
REMARK    2  A    between atoms: C_13  and  C_20 
REMARK    3  A    between atoms: C_15  and  C_16 
REMARK    4  A    between atoms: C_15  and  C_20 
REMARK    5  A    between atoms: C_16  and  C_17 
ROOT
HETATM    1  C   UNL     1      -2.795   4.691   0.000  1.00  0.00     0.005 A 
HETATM    2  C   UNL     1      -2.045   3.392   0.000  1.00  0.00     0.005 A 
HETATM    3  C   UNL     1      -2.045   5.990   0.000  1.00  0.00     0.026 A 
HETATM    4  C   UNL     1      -2.045   4.258   0.000  1.00  0.00     0.008 A 
HETATM    5  C   UNL     1      -0.545   3.392   0.000  1.00  0.00     0.026 A 
HETATM    6  C   UNL     1      -0.545   5.990   0.000  1.00  0.00     0.019 A 
HETATM    7  C   UNL     1       0.205   4.691   0.000  1.00  0.00     0.019 A 
HETATM    8  C   UNL     1       0.458   7.105   0.000  1.00  0.00     0.195 A 
HETATM    9  C   UNL     1       1.672   5.003   0.000  1.00  0.00     0.195 A 
HETATM   10  O   UNL     1       0.146   8.572   0.000  1.00  0.00    -0.171 OA
HETATM   11  O   UNL     1       2.787   4.000   0.000  1.00  0.00    -0.171 OA
HETATM   12  N   UNL     1       1.829   6.495   0.000  1.00  0.00    -0.263 N 
ENDROOT
BRANCH  12  13
HETATM   13  C   UNL     1       3.128   7.245   0.000  1.00  0.00     0.109 C 
BRANCH  13  14
HETATM   14  C   UNL     1       3.128   8.745   0.000  1.00  0.00     0.056 C 
BRANCH  14  15
HETATM   15  C   UNL     1       4.427   9.495   0.000  1.00  0.00     0.080 C 
BRANCH  15  16
HETATM   16  C   UNL     1       4.427  10.995   0.000  1.00  0.00     0.451 C 
HETATM   17  O   UNL     1       3.128  11.745   0.000  1.00  0.00    -0.182 OA
HETATM   18  N   UNL     1       5.726  11.745   0.000  1.00  0.00     0.652 N 
ENDBRANCH  15  16
ENDBRANCH  14  15
ENDBRANCH  13  14
BRANCH  13  19
HETATM   19  C   UNL     1       4.427   6.495   0.000  1.00  0.00     0.224 C 
HETATM   20  O   UNL     1       4.427   4.995   0.000  1.00  0.00    -0.643 OA
HETATM   21  O   UNL     1       5.726   7.245   0.000  1.00  0.00    -0.643 OA
ENDBRANCH  13  19
ENDBRANCH  12  13
TORSDOF 5
