REMARK  4 active torsions:
REMARK  status: ('A' for Active; 'I' for Inactive)
REMARK    1  A    between atoms: C_2  and  C_17 
REMARK    2  A    between atoms: C_3  and  C_13 
REMARK    3  A    between atoms: C_6  and  C_21 
REMARK    4  A    between atoms: C_7  and  C_21 
ROOT
HETATM    1  C   UNL     1       6.000   6.696   0.000  1.00  0.00     0.154 C 
HETATM    2  C   UNL     1       7.500   6.696   0.000  1.00  0.00     0.008 C 
HETATM    3  C   UNL     1       5.250   7.995   0.000  1.00  0.00     0.008 C 
HETATM    4  N   UNL     1       4.500   9.294   0.000  1.00  0.00    -0.100 N 
HETATM    5  N   UNL     1       9.000   6.696   0.000  1.00  0.00    -0.100 N 
ENDROOT
BRANCH   1   6
HETATM    6  C   UNL     1       5.250   5.397   0.000  1.00  0.00     0.029 C 
BRANCH   6   7
HETATM    7  C   UNL     1       3.750   5.397   0.000  1.00  0.00     0.010 A 
HETATM    8  C   UNL     1       3.000   6.696   0.000  1.00  0.00     0.024 A 
HETATM    9  C   UNL     1       1.500   6.696   0.000  1.00  0.00    -0.020 A 
HETATM   10  C   UNL     1       0.750   5.397   0.000  1.00  0.00     0.115 A 
HETATM   11  C   UNL     1       1.500   4.098   0.000  1.00  0.00    -0.020 A 
HETATM   12  O   UNL     1      -0.750   5.397   0.000  1.00  0.00    -0.192 OA
HETATM   13  C   UNL     1       3.000   4.098   0.000  1.00  0.00     0.024 A 
BRANCH   9  14
HETATM   14  C   UNL     1       0.750   7.995   0.000  1.00  0.00     0.017 C 
HETATM   15  C   UNL     1      -0.549   7.245   0.000  1.00  0.00     0.004 C 
HETATM   16  C   UNL     1       0.000   9.294   0.000  1.00  0.00     0.004 C 
HETATM   17  C   UNL     1       2.049   8.745   0.000  1.00  0.00     0.004 C 
ENDBRANCH   9  14
BRANCH  11  18
HETATM   18  C   UNL     1       0.750   2.799   0.000  1.00  0.00     0.017 C 
HETATM   19  C   UNL     1      -0.549   3.549   0.000  1.00  0.00     0.004 C 
HETATM   20  C   UNL     1       0.000   1.500   0.000  1.00  0.00     0.004 C 
HETATM   21  C   UNL     1       2.049   2.049   0.000  1.00  0.00     0.004 C 
ENDBRANCH  11  18
ENDBRANCH   6   7
ENDBRANCH   1   6
TORSDOF 4
