REMARK  9 active torsions:
REMARK  status: ('A' for Active; 'I' for Inactive)
REMARK    1  A    between atoms: C_7  and  C_12 
REMARK    2  A    between atoms: C_8  and  C_20 
REMARK    3  A    between atoms: C_12  and  C_13 
REMARK    4  A    between atoms: C_13  and  C_14 
REMARK    5  A    between atoms: C_14  and  C_15 
REMARK    6  A    between atoms: C_15  and  C_16 
REMARK    7  A    between atoms: C_16  and  C_17 
REMARK    8  A    between atoms: C_17  and  C_18 
REMARK    9  A    between atoms: C_18  and  C_19 
ROOT
HETATM    1  O   UNL     1       5.401   2.701   0.000  1.00  0.00    -0.190 OA
HETATM    2  C   UNL     1       6.011   1.331   0.000  1.00  0.00     0.270 A 
HETATM    3  C   UNL     1       7.478   1.019   0.000  1.00  0.00     0.067 A 
HETATM    4  O   UNL     1       5.261   0.032   0.000  1.00  0.00    -0.324 OA
HETATM    5  C   UNL     1       7.635  -0.473   0.000  1.00  0.00     0.042 A 
HETATM    6  C   UNL     1       6.264  -1.083   0.000  1.00  0.00     0.176 A 
HETATM    7  C   UNL     1       6.264  -3.681   0.000  1.00  0.00     0.079 A 
HETATM    8  C   UNL     1       7.014  -2.382   0.000  1.00  0.00     0.090 A 
HETATM    9  C   UNL     1       5.051  -1.965   0.000  1.00  0.00     0.302 A 
HETATM   10  O   UNL     1       5.208  -3.457   0.000  1.00  0.00    -0.306 OA
HETATM   11  O   UNL     1       3.680  -1.355   0.000  1.00  0.00    -0.187 OA
ENDROOT
BRANCH   7  12
HETATM   12  C   UNL     1       7.014  -4.980   0.000  1.00  0.00     0.051 C 
BRANCH  12  13
HETATM   13  C   UNL     1       6.264  -6.279   0.000  1.00  0.00     0.007 C 
BRANCH  13  14
HETATM   14  C   UNL     1       7.014  -7.578   0.000  1.00  0.00     0.000 C 
BRANCH  14  15
HETATM   15  C   UNL     1       8.514  -7.578   0.000  1.00  0.00     0.000 C 
BRANCH  15  16
HETATM   16  C   UNL     1       9.264  -8.877   0.000  1.00  0.00     0.000 C 
BRANCH  16  17
HETATM   17  C   UNL     1      10.764  -8.877   0.000  1.00  0.00     0.000 C 
BRANCH  17  18
HETATM   18  C   UNL     1      11.514 -10.176   0.000  1.00  0.00     0.000 C 
BRANCH  18  19
HETATM   19  C   UNL     1      10.764 -11.475   0.000  1.00  0.00     0.000 C 
HETATM   20  C   UNL     1       9.264 -11.475   0.000  1.00  0.00     0.000 C 
ENDBRANCH  18  19
ENDBRANCH  17  18
ENDBRANCH  16  17
ENDBRANCH  15  16
ENDBRANCH  14  15
ENDBRANCH  13  14
ENDBRANCH  12  13
ENDBRANCH   7  12
BRANCH   8  21
HETATM   21  C   UNL     1       8.514  -2.382   0.000  1.00  0.00     0.211 C 
HETATM   22  O   UNL     1       9.264  -1.083   0.000  1.00  0.00    -0.644 OA
HETATM   23  O   UNL     1       9.264  -3.681   0.000  1.00  0.00    -0.644 OA
ENDBRANCH   8  21
TORSDOF 9
