REMARK  1 active torsions:
REMARK  status: ('A' for Active; 'I' for Inactive)
REMARK    1  A    between atoms: C_20  and  C_21 
ROOT
HETATM    1  C   UNL     1       1.399   0.924   0.000  1.00  0.00     0.007 A 
HETATM    2  C   UNL     1       2.150  -0.375   0.000  1.00  0.00     0.024 A 
HETATM    3  C   UNL     1       2.403   2.039   0.000  1.00  0.00     0.034 A 
HETATM    4  C   UNL     1       3.617  -0.063   0.000  1.00  0.00    -0.020 A 
HETATM    5  C   UNL     1       3.773   1.429   0.000  1.00  0.00     0.134 A 
HETATM    6  O   UNL     1       4.524   2.728   0.000  1.00  0.00    -0.351 OA
HETATM    7  C   UNL     1       5.274   1.429   0.000  1.00  0.00     0.137 A 
HETATM    8  C   UNL     1       5.274  -0.071   0.000  1.00  0.00    -0.009 A 
HETATM    9  C   UNL     1       6.573   2.179   0.000  1.00  0.00     0.035 A 
HETATM   10  C   UNL     1       7.872   1.429   0.000  1.00  0.00     0.009 A 
HETATM   11  C   UNL     1       6.573  -0.821   0.000  1.00  0.00    -0.047 A 
HETATM   12  C   UNL     1       7.872  -0.071   0.000  1.00  0.00     0.021 A 
HETATM   13  C   UNL     1       8.028  -1.563   0.000  1.00  0.00     0.024 A 
HETATM   14  C   UNL     1       9.242   0.539   0.000  1.00  0.00     0.035 A 
HETATM   15  C   UNL     1      10.246  -0.576   0.000  1.00  0.00     0.137 A 
HETATM   16  C   UNL     1       9.496  -1.875   0.000  1.00  0.00     0.038 A 
HETATM   17  O   UNL     1      11.459   0.306   0.000  1.00  0.00    -0.332 OA
HETATM   18  C   UNL     1      11.616  -1.186   0.000  1.00  0.00     0.089 A 
ENDROOT
BRANCH  18  19
HETATM   19  C   UNL     1      12.498  -2.400   0.000  1.00  0.00    -0.024 A 
HETATM   20  C   UNL     1      11.887  -3.770   0.000  1.00  0.00     0.024 A 
HETATM   21  C   UNL     1      12.769  -4.983   0.000  1.00  0.00     0.004 A 
HETATM   22  C   UNL     1      14.261  -4.827   0.000  1.00  0.00     0.001 A 
HETATM   23  C   UNL     1      14.871  -3.456   0.000  1.00  0.00     0.004 A 
HETATM   24  C   UNL     1      13.989  -2.243   0.000  1.00  0.00     0.024 A 
ENDBRANCH  18  19
TORSDOF 1
