REMARK  0 active torsions:
REMARK  status: ('A' for Active; 'I' for Inactive)
ROOT
HETATM    1  C   UNL     1       1.674   1.399   0.000  1.00  0.00     0.007 A 
HETATM    2  C   UNL     1       1.674  -0.101   0.000  1.00  0.00     0.007 A 
HETATM    3  C   UNL     1       2.973   2.150   0.000  1.00  0.00     0.045 A 
HETATM    4  C   UNL     1       2.973  -0.851   0.000  1.00  0.00     0.045 A 
HETATM    5  C   UNL     1       4.272   1.399   0.000  1.00  0.00     0.046 A 
HETATM    6  C   UNL     1       4.272  -0.101   0.000  1.00  0.00     0.048 A 
HETATM    7  H   UNL     1       5.571   3.650   0.000  1.00  0.00     0.167 HD
HETATM    8  N   UNL     1       5.571  -0.851   0.000  1.00  0.00    -0.332 N 
HETATM    9  N   UNL     1       5.571   2.150   0.000  1.00  0.00    -0.347 N 
HETATM   10  C   UNL     1       5.883  -2.318   0.000  1.00  0.00     0.106 A 
HETATM   11  C   UNL     1       6.870  -0.100   0.000  1.00  0.00     0.063 A 
HETATM   12  C   UNL     1       6.870   1.400   0.000  1.00  0.00     0.124 A 
HETATM   13  C   UNL     1       7.985  -1.104   0.000  1.00  0.00     0.048 A 
HETATM   14  C   UNL     1       7.375  -2.474   0.000  1.00  0.00     0.031 A 
HETATM   15  S   UNL     1       8.169   2.150   0.000  1.00  0.00    -0.058 SA
ENDROOT
TORSDOF 0
