REMARK  0 active torsions:
REMARK  status: ('A' for Active; 'I' for Inactive)
ROOT
HETATM    1  O   UNL     1       6.249   0.750   0.000  1.00  0.00    -0.171 OA
HETATM    2  N   UNL     1       6.419   3.232   0.000  1.00  0.00    -0.324 N 
HETATM    3  N   UNL     1       6.272   7.817   0.000  1.00  0.00     0.063 N 
HETATM    4  O   UNL     1       5.888   9.267   0.000  1.00  0.00    -0.058 OA
HETATM    5  O   UNL     1      10.373   2.931   0.000  1.00  0.00    -0.344 OA
HETATM    6  C   UNL     1       9.159   8.188   0.000  1.00  0.00     0.205 A 
HETATM    7  C   UNL     1      10.428   5.679   0.000  1.00  0.00    -0.019 A 
HETATM    8  C   UNL     1      11.364   4.927   0.000  1.00  0.00     0.019 A 
HETATM    9  C   UNL     1       4.996   7.293   0.000  1.00  0.00     0.228 A 
HETATM   10  C   UNL     1       5.117   5.870   0.000  1.00  0.00     0.060 A 
HETATM   11  C   UNL     1       7.153   6.761   0.000  1.00  0.00     0.384 A 
HETATM   12  C   UNL     1       6.474   5.532   0.000  1.00  0.00     0.050 A 
HETATM   13  C   UNL     1       8.495   6.717   0.000  1.00  0.00     0.062 A 
HETATM   14  C   UNL     1       9.189   5.506   0.000  1.00  0.00     0.113 A 
HETATM   15  C   UNL     1       7.068   4.435   0.000  1.00  0.00     0.112 A 
HETATM   16  C   UNL     1       4.915   5.246   0.000  1.00  0.00     0.039 A 
HETATM   17  C   UNL     1       3.540   6.046   0.000  1.00  0.00     0.011 A 
HETATM   18  C   UNL     1       2.164   5.246   0.000  1.00  0.00     0.001 A 
HETATM   19  C   UNL     1       4.915   3.683   0.000  1.00  0.00     0.015 A 
HETATM   20  C   UNL     1       2.164   3.683   0.000  1.00  0.00     0.006 A 
HETATM   21  C   UNL     1       8.459   4.366   0.000  1.00  0.00     0.047 A 
HETATM   22  C   UNL     1       3.540   2.880   0.000  1.00  0.00     0.039 A 
HETATM   23  C   UNL     1       9.108   3.203   0.000  1.00  0.00     0.125 A 
HETATM   24  C   UNL     1      11.360   3.724   0.000  1.00  0.00     0.114 A 
HETATM   25  C   UNL     1       8.400   1.970   0.000  1.00  0.00     0.031 A 
HETATM   26  C   UNL     1       7.050   2.018   0.000  1.00  0.00     0.190 A 
ENDROOT
TORSDOF 0
