REMARK  12 active torsions:
REMARK  status: ('A' for Active; 'I' for Inactive)
REMARK    1  A    between atoms: C_3  and  C_4 
REMARK    2  A    between atoms: C_4  and  C_7 
REMARK    3  A    between atoms: C_5  and  C_10 
REMARK    4  A    between atoms: C_6  and  C_13 
REMARK    5  A    between atoms: C_7  and  C_23 
REMARK    6  A    between atoms: C_10  and  C_13 
REMARK    7  A    between atoms: O_11  and  C_14 
REMARK    8  A    between atoms: C_12  and  O_26 
REMARK    9  A    between atoms: C_15  and  C_25 
REMARK   10  A    between atoms: C_19  and  O_20 
REMARK   11  A    between atoms: C_21  and  C_23 
REMARK   12  A    between atoms: C_23  and  O_24 
ROOT
HETATM    1  C   UNL     1      -1.958  -0.313   0.000  1.00  0.00     0.028 A 
HETATM    2  C   UNL     1      -1.958  -1.253   0.000  1.00  0.00     0.099 A 
HETATM    3  C   UNL     1      -1.144  -1.723   0.000  1.00  0.00     0.050 A 
HETATM    4  C   UNL     1      -0.328  -1.253   0.000  1.00  0.00     0.005 A 
HETATM    5  C   UNL     1      -0.328  -0.313   0.000  1.00  0.00     0.003 A 
HETATM    6  C   UNL     1      -1.144   0.157   0.000  1.00  0.00     0.003 A 
HETATM    7  C   UNL     1       0.016   1.603   0.000  1.00  0.00     0.004 A 
HETATM    8  C   UNL     1      -0.274   0.710   0.000  1.00  0.00     0.003 A 
HETATM    9  C   UNL     1       0.956   1.603   0.000  1.00  0.00     0.012 A 
HETATM   10  C   UNL     1       1.896   1.603   0.000  1.00  0.00    -0.067 A 
HETATM   11  C   UNL     1       2.187   2.498   0.000  1.00  0.00     0.018 A 
HETATM   12  O   UNL     1       1.426   3.050   0.000  1.00  0.00     0.000 OA
HETATM   13  C   UNL     1       0.666   2.498   0.000  1.00  0.00     0.007 A 
HETATM   14  C   UNL     1      -0.550   0.560   0.000  1.00  0.00     0.001 A 
HETATM   15  O   UNL     1      -1.111  -0.832   0.000  1.00  0.00     0.000 OA
HETATM   16  C   UNL     1      -2.091  -2.119   0.000  1.00  0.00     0.117 A 
HETATM   17  O   UNL     1      -2.696  -2.468   0.000  1.00  0.00    -0.361 OA
HETATM   18  C   UNL     1      -0.957  -2.236   0.000  1.00  0.00     0.052 A 
HETATM   19  O   UNL     1       0.089   2.981   0.000  1.00  0.00     0.000 OA
ENDROOT
BRANCH   5  20
HETATM   20  C   UNL     1       0.486   0.157   0.000  1.00  0.00     0.001 A 
HETATM   21  C   UNL     1       1.300  -0.313   0.000  1.00  0.00     0.004 A 
HETATM   22  C   UNL     1       1.300  -1.253   0.000  1.00  0.00     0.004 A 
HETATM   23  C   UNL     1       1.996  -0.060   0.000  1.00  0.00     0.014 A 
HETATM   24  C   UNL     1       0.486  -1.723   0.000  1.00  0.00     0.005 A 
HETATM   25  O   UNL     1       1.246   0.710   0.000  1.00  0.00     0.000 OA
HETATM   26  O   UNL     1       0.486  -2.264   0.000  1.00  0.00     0.000 OA
ENDBRANCH   5  20
TORSDOF 12
