REMARK  4 active torsions:
REMARK  status: ('A' for Active; 'I' for Inactive)
REMARK    1  A    between atoms: C_10  and  C_19 
REMARK    2  A    between atoms: C_12  and  C_19 
REMARK    3  A    between atoms: C_17  and  O_18 
REMARK    4  A    between atoms: O_18  and  C_20 
ROOT
HETATM    1  C   UNL     1      -4.272  -8.899   0.000  1.00  0.00     0.005 A 
HETATM    2  C   UNL     1      -4.272 -10.399   0.000  1.00  0.00     0.005 A 
HETATM    3  C   UNL     1      -2.973  -8.149   0.000  1.00  0.00     0.028 A 
HETATM    4  C   UNL     1      -2.973 -11.149   0.000  1.00  0.00     0.022 A 
HETATM    5  C   UNL     1      -1.674  -8.899   0.000  1.00  0.00    -0.005 A 
HETATM    6  C   UNL     1      -1.674 -10.399   0.000  1.00  0.00    -0.046 A 
HETATM    7  O   UNL     1      -0.375  -6.649   0.000  1.00  0.00    -0.191 OA
HETATM    8  C   UNL     1      -0.375 -11.149   0.000  1.00  0.00     0.026 A 
HETATM    9  C   UNL     1      -0.375  -8.149   0.000  1.00  0.00     0.118 A 
HETATM   10  C   UNL     1       0.924  -8.899   0.000  1.00  0.00    -0.019 A 
HETATM   11  C   UNL     1       0.924 -10.399   0.000  1.00  0.00     0.028 A 
ENDROOT
BRANCH  10  12
HETATM   12  C   UNL     1       2.223  -8.149   0.000  1.00  0.00     0.024 C 
BRANCH  12  13
HETATM   13  C   UNL     1       3.522  -8.899   0.000  1.00  0.00     0.004 A 
HETATM   14  C   UNL     1       4.821  -8.149   0.000  1.00  0.00     0.003 A 
HETATM   15  C   UNL     1       6.120  -8.899   0.000  1.00  0.00     0.030 A 
HETATM   16  C   UNL     1       6.120 -10.399   0.000  1.00  0.00     0.115 A 
HETATM   17  C   UNL     1       4.821 -11.149   0.000  1.00  0.00     0.030 A 
HETATM   18  C   UNL     1       3.522 -10.399   0.000  1.00  0.00     0.003 A 
BRANCH  16  19
HETATM   19  O   UNL     1       7.419 -11.149   0.000  1.00  0.00    -0.357 OA
BRANCH  19  20
HETATM   20  C   UNL     1       8.718 -10.399   0.000  1.00  0.00     0.142 C 
HETATM   21  C   UNL     1       8.718  -8.899   0.000  1.00  0.00     0.035 C 
ENDBRANCH  19  20
ENDBRANCH  16  19
ENDBRANCH  12  13
ENDBRANCH  10  12
TORSDOF 4
