REMARK  0 active torsions:
REMARK  status: ('A' for Active; 'I' for Inactive)
ROOT
HETATM    1  C   UNL     1      -6.114  -0.750   0.000  1.00  0.00     0.051 A 
HETATM    2  C   UNL     1      -7.413  -1.500   0.000  1.00  0.00     0.014 A 
HETATM    3  C   UNL     1      -4.814  -1.500   0.000  1.00  0.00     0.073 A 
HETATM    4  C   UNL     1      -4.814  -3.000   0.000  1.00  0.00     0.040 A 
HETATM    5  C   UNL     1      -7.413  -3.000   0.000  1.00  0.00     0.055 A 
HETATM    6  C   UNL     1      -6.114  -3.750   0.000  1.00  0.00     0.110 A 
HETATM    7  O   UNL     1      -6.114  -5.250   0.000  1.00  0.00    -0.193 OA
HETATM    8  O   UNL     1      -3.515  -0.750   0.000  1.00  0.00    -0.337 OA
HETATM    9  C   UNL     1      -2.216  -1.500   0.000  1.00  0.00     0.126 A 
HETATM   10  C   UNL     1      -0.917  -0.750   0.000  1.00  0.00     0.033 C 
HETATM   11  C   UNL     1      -2.216  -3.000   0.000  1.00  0.00     0.061 A 
HETATM   12  C   UNL     1      -3.515  -3.750   0.000  1.00  0.00     0.035 A 
HETATM   13  C   UNL     1      -3.515  -5.250   0.000  1.00  0.00     0.257 A 
HETATM   14  O   UNL     1      -4.814  -6.000   0.000  1.00  0.00    -0.163 OA
HETATM   15  O   UNL     1      -2.216  -6.000   0.000  1.00  0.00    -0.161 OA
ENDROOT
TORSDOF 0
