REMARK  2 active torsions:
REMARK  status: ('A' for Active; 'I' for Inactive)
REMARK    1  A    between atoms: C_11  and  O_22 
REMARK    2  A    between atoms: P_21  and  O_22 
ROOT
HETATM    1  O   UNL     1       4.179   4.924   0.000  1.00  0.00    -0.271 OA
HETATM    2  O   UNL     1       3.406   2.038   0.000  1.00  0.00    -0.253 OA
HETATM    3  C   UNL     1       1.286   8.372   0.000  1.00  0.00     0.005 A 
HETATM    4  C   UNL     1       0.773   6.962   0.000  1.00  0.00     0.028 A 
HETATM    5  C   UNL     1       2.764   8.632   0.000  1.00  0.00     0.007 A 
HETATM    6  C   UNL     1       1.738   5.813   0.000  1.00  0.00    -0.007 A 
HETATM    7  C   UNL     1       3.728   7.483   0.000  1.00  0.00     0.051 A 
HETATM    8  C   UNL     1       3.215   6.074   0.000  1.00  0.00     0.076 A 
HETATM    9  C   UNL     1       1.416   4.814   0.000  1.00  0.00    -0.021 A 
HETATM   10  C   UNL     1       2.166   3.515   0.000  1.00  0.00     0.054 A 
HETATM   11  C   UNL     1      -0.084   4.814   0.000  1.00  0.00     0.026 A 
HETATM   12  C   UNL     1       1.416   2.216   0.000  1.00  0.00     0.034 A 
HETATM   13  C   UNL     1      -0.834   3.515   0.000  1.00  0.00     0.005 A 
HETATM   14  C   UNL     1      -0.084   2.216   0.000  1.00  0.00     0.005 A 
HETATM   15  P   UNL     1       3.666   3.515   0.000  1.00  0.00     0.365 P 
ENDROOT
BRANCH  15  16
HETATM   16  O   UNL     1       5.143   3.254   0.000  1.00  0.00    -0.294 OA
BRANCH  16  17
HETATM   17  C   UNL     1       6.107   4.404   0.000  1.00  0.00     0.124 A 
HETATM   18  C   UNL     1       5.594   5.813   0.000  1.00  0.00     0.030 A 
HETATM   19  C   UNL     1       6.559   6.962   0.000  1.00  0.00     0.003 A 
HETATM   20  C   UNL     1       8.036   6.702   0.000  1.00  0.00     0.000 A 
HETATM   21  C   UNL     1       8.549   5.292   0.000  1.00  0.00     0.003 A 
HETATM   22  C   UNL     1       7.585   4.143   0.000  1.00  0.00     0.030 A 
ENDBRANCH  16  17
ENDBRANCH  15  16
TORSDOF 2
