REMARK  2 active torsions:
REMARK  status: ('A' for Active; 'I' for Inactive)
REMARK    1  A    between atoms: N_8  and  C_15 
REMARK    2  A    between atoms: C_9  and  C_15 
ROOT
HETATM    1  O   UNL     1       3.689   2.962   0.000  1.00  0.00    -0.226 OA
HETATM    2  O   UNL     1       2.019   1.998   0.000  1.00  0.00    -0.226 OA
HETATM    3  S   UNL     1       3.429   1.484   0.000  1.00  0.00     0.174 S 
HETATM    4  C   UNL     1       4.929   1.484   0.000  1.00  0.00     0.146 A 
HETATM    5  C   UNL     1       2.679   0.185   0.000  1.00  0.00     0.146 A 
HETATM    6  C   UNL     1       5.679   0.185   0.000  1.00  0.00     0.115 A 
HETATM    7  C   UNL     1       3.429  -1.114   0.000  1.00  0.00     0.115 A 
HETATM    8  N   UNL     1       4.929  -1.114   0.000  1.00  0.00    -0.362 N 
ENDROOT
BRANCH   8   9
HETATM    9  C   UNL     1       5.679  -2.413   0.000  1.00  0.00     0.139 C 
BRANCH   9  10
HETATM   10  C   UNL     1       7.179  -2.413   0.000  1.00  0.00     0.054 A 
HETATM   11  C   UNL     1       7.929  -1.114   0.000  1.00  0.00     0.043 A 
HETATM   12  C   UNL     1       9.429  -1.114   0.000  1.00  0.00     0.008 A 
HETATM   13  C   UNL     1      10.179  -2.413   0.000  1.00  0.00     0.027 A 
HETATM   14  C   UNL     1       9.429  -3.712   0.000  1.00  0.00     0.125 A 
HETATM   15  N   UNL     1       7.929  -3.712   0.000  1.00  0.00    -0.277 NA
ENDBRANCH   9  10
ENDBRANCH   8   9
TORSDOF 2
