REMARK  3 active torsions:
REMARK  status: ('A' for Active; 'I' for Inactive)
REMARK    1  A    between atoms: C_6  and  O_10 
REMARK    2  A    between atoms: O_10  and  C_11 
REMARK    3  A    between atoms: C_11  and  C_12 
ROOT
HETATM    1  O   UNL     1      -4.647   4.500   0.000  1.00  0.00     0.000 OA
HETATM    2  C   UNL     1      -4.647   3.000   0.000  1.00  0.00     0.063 A 
HETATM    3  C   UNL     1      -3.348   2.250   0.000  1.00  0.00     0.130 A 
HETATM    4  C   UNL     1      -2.049   3.000   0.000  1.00  0.00     0.136 A 
HETATM    5  C   UNL     1      -2.049   4.500   0.000  1.00  0.00     0.109 A 
HETATM    6  C   UNL     1      -3.348   5.250   0.000  1.00  0.00     0.097 A 
HETATM    7  O   UNL     1      -3.348   0.750   0.000  1.00  0.00    -0.193 OA
HETATM    8  O   UNL     1      -0.750   2.250   0.000  1.00  0.00    -0.193 OA
HETATM    9  O   UNL     1      -3.348   3.750   0.000  1.00  0.00     0.000 OA
ENDROOT
BRANCH   6  10
HETATM   10  O   UNL     1      -3.348   6.750   0.000  1.00  0.00    -0.333 OA
BRANCH  10  11
HETATM   11  C   UNL     1      -4.647   7.500   0.000  1.00  0.00     0.148 C 
BRANCH  11  12
HETATM   12  C   UNL     1      -4.647   9.000   0.000  1.00  0.00     0.030 A 
HETATM   13  C   UNL     1      -5.946   9.750   0.000  1.00  0.00     0.003 A 
HETATM   14  C   UNL     1      -5.946  11.250   0.000  1.00  0.00     0.000 A 
HETATM   15  C   UNL     1      -4.647  12.000   0.000  1.00  0.00     0.000 A 
HETATM   16  C   UNL     1      -3.348  11.250   0.000  1.00  0.00     0.000 A 
HETATM   17  C   UNL     1      -3.348   9.750   0.000  1.00  0.00     0.003 A 
ENDBRANCH  11  12
ENDBRANCH  10  11
ENDBRANCH   6  10
TORSDOF 3
