REMARK  4 active torsions:
REMARK  status: ('A' for Active; 'I' for Inactive)
REMARK    1  A    between atoms: C_8  and  C_10 
REMARK    2  A    between atoms: C_12  and  C_19 
REMARK    3  A    between atoms: C_19  and  O_21 
REMARK    4  A    between atoms: O_21  and  C_22 
ROOT
HETATM    1 CL   UNL     1      -8.770  -8.930   0.000  1.00  0.00    -0.091 Cl
HETATM    2 CL   UNL     1      -6.172  -4.430   0.000  1.00  0.00    -0.085 Cl
HETATM    3  N   UNL     1      -3.574  -5.930   0.000  1.00  0.00    -0.250 NA
HETATM    4  C   UNL     1      -2.275  -6.680   0.000  1.00  0.00     0.058 A 
HETATM    5  C   UNL     1      -2.275  -8.180   0.000  1.00  0.00     0.075 A 
HETATM    6  C   UNL     1      -3.574  -8.930   0.000  1.00  0.00     0.030 A 
HETATM    7  C   UNL     1      -4.873  -8.180   0.000  1.00  0.00     0.001 A 
HETATM    8  C   UNL     1      -6.172  -5.930   0.000  1.00  0.00     0.058 A 
HETATM    9  C   UNL     1      -7.471  -6.680   0.000  1.00  0.00     0.073 A 
HETATM   10  C   UNL     1      -4.873  -6.680   0.000  1.00  0.00     0.084 A 
HETATM   11  C   UNL     1      -7.471  -8.180   0.000  1.00  0.00     0.023 A 
HETATM   12  C   UNL     1      -6.172  -8.930   0.000  1.00  0.00     0.061 A 
ENDROOT
BRANCH   4  13
HETATM   13  C   UNL     1      -0.976  -5.930   0.000  1.00  0.00    -0.007 A 
HETATM   14  C   UNL     1       0.323  -6.680   0.000  1.00  0.00     0.027 A 
HETATM   15  C   UNL     1       1.622  -5.930   0.000  1.00  0.00     0.030 A 
HETATM   16  C   UNL     1       1.622  -4.430   0.000  1.00  0.00     0.121 A 
HETATM   17  N   UNL     1       0.323  -3.680   0.000  1.00  0.00    -0.291 NA
HETATM   18  C   UNL     1      -0.976  -4.430   0.000  1.00  0.00     0.143 A 
ENDBRANCH   4  13
BRANCH   6  19
HETATM   19  C   UNL     1      -3.574 -10.430   0.000  1.00  0.00     0.224 C 
HETATM   20  O   UNL     1      -4.873 -11.180   0.000  1.00  0.00    -0.164 OA
BRANCH  19  21
HETATM   21  O   UNL     1      -2.275 -11.180   0.000  1.00  0.00    -0.309 OA
BRANCH  21  22
HETATM   22  C   UNL     1      -0.976 -10.430   0.000  1.00  0.00     0.151 C 
HETATM   23  C   UNL     1       0.323 -11.180   0.000  1.00  0.00     0.035 C 
ENDBRANCH  21  22
ENDBRANCH  19  21
ENDBRANCH   6  19
TORSDOF 4
