REMARK  2 active torsions:
REMARK  status: ('A' for Active; 'I' for Inactive)
REMARK    1  A    between atoms: C_3  and  C_7 
REMARK    2  A    between atoms: C_10  and  C_17 
ROOT
HETATM    1  N   UNL     1      -5.471  -5.524   0.000  1.00  0.00    -0.255 NA
HETATM    2  C   UNL     1      -4.172  -6.274   0.000  1.00  0.00     0.059 A 
HETATM    3  C   UNL     1      -4.172  -7.774   0.000  1.00  0.00     0.078 A 
HETATM    4  C   UNL     1      -5.471  -8.524   0.000  1.00  0.00     0.045 A 
HETATM    5  C   UNL     1      -6.770  -7.774   0.000  1.00  0.00    -0.006 A 
HETATM    6  C   UNL     1      -8.069  -5.524   0.000  1.00  0.00     0.045 A 
HETATM    7  C   UNL     1      -6.770  -6.274   0.000  1.00  0.00     0.055 A 
HETATM    8  C   UNL     1      -9.368  -6.274   0.000  1.00  0.00     0.007 A 
HETATM    9  C   UNL     1      -9.368  -7.774   0.000  1.00  0.00     0.005 A 
HETATM   10  C   UNL     1      -8.069  -8.524   0.000  1.00  0.00     0.028 A 
ENDROOT
BRANCH   2  11
HETATM   11  C   UNL     1      -2.873  -5.524   0.000  1.00  0.00    -0.016 A 
HETATM   12  C   UNL     1      -2.873  -4.024   0.000  1.00  0.00     0.027 A 
HETATM   13  C   UNL     1      -1.574  -3.275   0.000  1.00  0.00     0.005 A 
HETATM   14  C   UNL     1      -0.275  -4.024   0.000  1.00  0.00     0.004 A 
HETATM   15  C   UNL     1      -0.275  -5.524   0.000  1.00  0.00     0.022 A 
HETATM   16  C   UNL     1       1.024  -3.275   0.000  1.00  0.00     0.000 C 
HETATM   17  C   UNL     1      -1.574  -6.274   0.000  1.00  0.00    -0.047 A 
HETATM   18  C   UNL     1      -1.574  -7.774   0.000  1.00  0.00     0.026 C 
ENDBRANCH   2  11
BRANCH   4  19
HETATM   19  C   UNL     1      -5.471 -10.024   0.000  1.00  0.00     0.207 C 
HETATM   20  O   UNL     1      -6.770 -10.774   0.000  1.00  0.00    -0.644 OA
HETATM   21  O   UNL     1      -4.172 -10.774   0.000  1.00  0.00    -0.644 OA
ENDBRANCH   4  19
TORSDOF 2
