REMARK  3 active torsions:
REMARK  status: ('A' for Active; 'I' for Inactive)
REMARK    1  A    between atoms: N_5  and  C1*_11 
REMARK    2  A    between atoms: C_10  and  S_15 
REMARK    3  A    between atoms: C4*_14  and  C5*_18 
ROOT
HETATM    1  N   UNL     1       4.686   3.616   0.000  1.00  0.00    -0.241 NA
HETATM    2  N   UNL     1       5.985   1.366   0.000  1.00  0.00    -0.203 NA
HETATM    3  N   UNL     1       8.710   4.080   0.000  1.00  0.00    -0.245 NA
HETATM    4  N   UNL     1       8.710   1.653   0.000  1.00  0.00    -0.269 N 
HETATM    5  C   UNL     1       5.985   4.366   0.000  1.00  0.00     0.176 A 
HETATM    6  C   UNL     1       7.284   3.616   0.000  1.00  0.00     0.115 A 
HETATM    7  C   UNL     1       7.284   2.116   0.000  1.00  0.00     0.164 A 
HETATM    8  C   UNL     1       9.592   2.866   0.000  1.00  0.00     0.238 A 
HETATM    9  C   UNL     1       4.686   2.116   0.000  1.00  0.00     0.187 A 
ENDROOT
BRANCH   4  10
HETATM   10  C1* UNL     1       9.174   0.226   0.000  1.00  0.00     0.194 A 
HETATM   11  O4* UNL     1       8.292  -0.988   0.000  1.00  0.00    -0.288 OA
HETATM   12  C4* UNL     1       9.174  -2.201   0.000  1.00  0.00     0.140 A 
HETATM   13  C3* UNL     1      10.601  -1.738   0.000  1.00  0.00     0.181 A 
HETATM   14  C2* UNL     1      10.601  -0.238   0.000  1.00  0.00     0.197 A 
HETATM   15  O3* UNL     1      11.814  -2.619   0.000  1.00  0.00    -0.186 OA
HETATM   16  O2* UNL     1      11.814   0.644   0.000  1.00  0.00    -0.184 OA
BRANCH  12  17
HETATM   17  C5* UNL     1       8.710  -3.628   0.000  1.00  0.00     0.235 C 
HETATM   18  O5* UNL     1       9.714  -4.742   0.000  1.00  0.00    -0.213 OA
ENDBRANCH  12  17
ENDBRANCH   4  10
BRANCH   9  19
HETATM   19  S   UNL     1       3.387   1.366   0.000  1.00  0.00    -0.075 SA
HETATM   20  C   UNL     1       2.088   2.116   0.000  1.00  0.00     0.077 C 
ENDBRANCH   9  19
TORSDOF 3
