REMARK  7 active torsions:
REMARK  status: ('A' for Active; 'I' for Inactive)
REMARK    1  A    between atoms: N_2  and  C_11 
REMARK    2  A    between atoms: N_2  and  C_17 
REMARK    3  A    between atoms: N_3  and  C_27 
REMARK    4  A    between atoms: N_3  and  C_24 
REMARK    5  A    between atoms: C_8  and  N_31 
REMARK    6  A    between atoms: C_16  and  C_35 
REMARK    7  A    between atoms: C_21  and  N_37 
REMARK       I    between atoms: C_35  and  N_37 
ROOT
HETATM    1  C   UNL     1     -16.338   1.500   0.000  1.00  0.00     0.032 A 
HETATM    2  C   UNL     1     -17.637   0.750   0.000  1.00  0.00     0.046 A 
HETATM    3  C   UNL     1     -15.039   0.750   0.000  1.00  0.00     0.000 A 
HETATM    4  C   UNL     1     -17.637  -0.750   0.000  1.00  0.00     0.037 A 
HETATM    5  C   UNL     1     -15.039  -0.750   0.000  1.00  0.00     0.032 A 
HETATM    6  C   UNL     1     -16.338  -1.500   0.000  1.00  0.00     0.046 A 
ENDROOT
BRANCH   3   7
HETATM    7  C   UNL     1     -13.740   1.500   0.000  1.00  0.00     0.204 C 
HETATM    8  O   UNL     1     -13.740   3.000   0.000  1.00  0.00    -0.170 OA
HETATM    9  N   UNL     1     -12.441   0.750   0.000  1.00  0.00    -0.229 NA
BRANCH   9  10
HETATM   10  C   UNL     1     -11.142   1.500   0.000  1.00  0.00     0.040 A 
HETATM   11  C   UNL     1     -11.142   3.000   0.000  1.00  0.00     0.047 A 
HETATM   12  C   UNL     1      -9.843   3.750   0.000  1.00  0.00     0.047 A 
HETATM   13  C   UNL     1      -8.544   3.000   0.000  1.00  0.00     0.037 A 
HETATM   14  C   UNL     1      -8.544   1.500   0.000  1.00  0.00     0.047 A 
HETATM   15  C   UNL     1      -9.843   0.750   0.000  1.00  0.00     0.047 A 
BRANCH  13  16
HETATM   16  N   UNL     1      -7.245   3.750   0.000  1.00  0.00    -0.263 NA
BRANCH  16  17
HETATM   17  C   UNL     1      -5.946   3.000   0.000  1.00  0.00     0.040 A 
HETATM   18  C   UNL     1      -4.647   3.750   0.000  1.00  0.00     0.065 A 
HETATM   19  C   UNL     1      -3.348   3.000   0.000  1.00  0.00     0.103 A 
HETATM   20  N   UNL     1      -3.348   1.500   0.000  1.00  0.00    -0.366 N 
HETATM   21  C   UNL     1      -4.647   0.750   0.000  1.00  0.00     0.103 A 
HETATM   22  C   UNL     1      -2.049   0.750   0.000  1.00  0.00     0.121 C 
HETATM   23  C   UNL     1      -5.946   1.500   0.000  1.00  0.00     0.065 A 
ENDBRANCH  16  17
ENDBRANCH  13  16
ENDBRANCH   9  10
ENDBRANCH   3   7
BRANCH   4  24
HETATM   24  N   UNL     1     -18.936  -1.500   0.000  1.00  0.00    -0.259 NA
BRANCH  24  25
HETATM   25  C   UNL     1     -20.236  -0.750   0.000  1.00  0.00     0.058 A 
HETATM   26  C   UNL     1     -21.535  -1.500   0.000  1.00  0.00     0.009 A 
HETATM   27  C   UNL     1     -22.834  -0.750   0.000  1.00  0.00     0.031 A 
HETATM   28  C   UNL     1     -21.535  -3.000   0.000  1.00  0.00     0.074 A 
HETATM   29  N   UNL     1     -22.834   0.750   0.000  1.00  0.00    -0.349 N 
HETATM   30  C   UNL     1     -24.133  -1.500   0.000  1.00  0.00     0.049 A 
HETATM   31  C   UNL     1     -21.535   1.500   0.000  1.00  0.00     0.107 A 
HETATM   32  C   UNL     1     -24.133   1.500   0.000  1.00  0.00     0.125 C 
HETATM   33  C   UNL     1     -20.236   0.750   0.000  1.00  0.00     0.070 A 
HETATM   34  C   UNL     1     -24.133  -3.000   0.000  1.00  0.00     0.052 A 
HETATM   35  C   UNL     1     -22.834  -3.750   0.000  1.00  0.00     0.087 A 
BRANCH  35  36
HETATM   36  N   UNL     1     -22.834  -5.250   0.000  1.00  0.00    -0.122 N 
HETATM   37  O   UNL     1     -24.133  -6.000   0.000  1.00  0.00    -0.532 OA
HETATM   38  O   UNL     1     -21.535  -6.000   0.000  1.00  0.00    -0.532 OA
ENDBRANCH  35  36
ENDBRANCH  24  25
ENDBRANCH   4  24
TORSDOF 7
