REMARK  5 active torsions:
REMARK  status: ('A' for Active; 'I' for Inactive)
REMARK    1  A    between atoms: N_2  and  C_9 
REMARK    2  A    between atoms: C_5  and  N_6 
REMARK    3  A    between atoms: C_9  and  C_10 
REMARK    4  A    between atoms: C_10  and  C_12 
REMARK    5  A    between atoms: C_12  and  O_13 
ROOT
HETATM    1  N   UNL     1      -3.035   0.180   0.000  1.00  0.00    -0.233 NA
HETATM    2  N   UNL     1      -0.616  -0.023   0.000  1.00  0.00    -0.311 N 
HETATM    3  C   UNL     1      -0.959   1.437   0.000  1.00  0.00     0.131 A 
HETATM    4  C   UNL     1      -2.453   1.563   0.000  1.00  0.00     0.153 A 
HETATM    5  C   UNL     1      -1.899  -0.800   0.000  1.00  0.00     0.268 A 
ENDROOT
BRANCH   2   6
HETATM    6  C   UNL     1       0.766  -0.605   0.000  1.00  0.00     0.140 C 
BRANCH   6   7
HETATM    7  C   UNL     1       1.961   0.302   0.000  1.00  0.00     0.204 C 
HETATM    8  O   UNL     1       3.344  -0.279   0.000  1.00  0.00    -0.219 OA
BRANCH   7   9
HETATM    9  C   UNL     1       1.773   1.790   0.000  1.00  0.00     0.177 C 
BRANCH   9  10
HETATM   10  O   UNL     1       2.968   2.697   0.000  1.00  0.00    -0.349 OA
HETATM   11  C   UNL     1       4.351   2.116   0.000  1.00  0.00     0.174 C 
ENDBRANCH   9  10
ENDBRANCH   7   9
ENDBRANCH   6   7
ENDBRANCH   2   6
BRANCH   5  12
HETATM   12  N   UNL     1      -2.025  -2.295   0.000  1.00  0.00    -0.078 N 
HETATM   13  O   UNL     1      -0.794  -3.151   0.000  1.00  0.00    -0.529 OA
HETATM   14  O   UNL     1      -3.383  -2.933   0.000  1.00  0.00    -0.529 OA
ENDBRANCH   5  12
TORSDOF 5
