REMARK  0 active torsions:
REMARK  status: ('A' for Active; 'I' for Inactive)
ROOT
HETATM    1 CL   UNL     1       6.388   0.938   0.000  1.00  0.00    -0.081 Cl
HETATM    2 CL   UNL     1       3.125   0.938   0.000  1.00  0.00    -0.081 Cl
HETATM    3 CL   UNL     1       7.397  -2.166   0.000  1.00  0.00    -0.082 Cl
HETATM    4 CL   UNL     1       2.116  -2.166   0.000  1.00  0.00    -0.144 Cl
HETATM    5  C   UNL     1       5.970  -1.702   0.000  1.00  0.00     0.066 A 
HETATM    6  C   UNL     1       5.506  -0.276   0.000  1.00  0.00     0.079 A 
HETATM    7  C   UNL     1       4.756  -2.584   0.000  1.00  0.00     0.004 A 
HETATM    8  C   UNL     1       3.543  -1.702   0.000  1.00  0.00     0.055 A 
HETATM    9  C   UNL     1       4.006  -0.276   0.000  1.00  0.00     0.079 A 
HETATM   10  C   UNL     1       3.457  -6.334   0.000  1.00  0.00     0.023 A 
HETATM   11  C   UNL     1       3.457  -4.834   0.000  1.00  0.00    -0.034 A 
HETATM   12  C   UNL     1       2.158  -7.084   0.000  1.00  0.00     0.005 A 
HETATM   13  C   UNL     1       0.859  -6.334   0.000  1.00  0.00     0.005 A 
HETATM   14  C   UNL     1       2.158  -4.084   0.000  1.00  0.00     0.017 A 
HETATM   15  C   UNL     1       0.859  -4.834   0.000  1.00  0.00     0.036 A 
HETATM   16  C   UNL     1       4.756  -4.084   0.000  1.00  0.00     0.051 A 
HETATM   17  C   UNL     1      -0.440  -7.084   0.000  1.00  0.00     0.000 C 
ENDROOT
TORSDOF 0
