REMARK  1 active torsions:
REMARK  status: ('A' for Active; 'I' for Inactive)
REMARK    1  A    between atoms: C_12  and  C_13 
ROOT
HETATM    1  C   UNL     1      -0.991  -6.321   0.000  1.00  0.00     0.079 A 
HETATM    2  C   UNL     1      -2.488  -6.224   0.000  1.00  0.00     0.079 A 
HETATM    3  C   UNL     1      -0.438  -4.926   0.000  1.00  0.00     0.055 A 
HETATM    4  C   UNL     1      -2.860  -4.771   0.000  1.00  0.00     0.066 A 
HETATM    5  C   UNL     1      -1.592  -3.969   0.000  1.00  0.00     0.000 A 
HETATM    6 CL   UNL     1      -3.446  -7.379   0.000  1.00  0.00    -0.081 Cl
HETATM    7 CL   UNL     1      -4.253  -4.217   0.000  1.00  0.00    -0.082 Cl
HETATM    8 CL   UNL     1      -0.189  -7.588   0.000  1.00  0.00    -0.081 Cl
HETATM    9 CL   UNL     1       1.016  -4.555   0.000  1.00  0.00    -0.144 Cl
HETATM   10  C   UNL     1      -1.496  -2.472   0.000  1.00  0.00     0.034 A 
HETATM   11  C   UNL     1      -0.152  -1.807   0.000  1.00  0.00     0.041 A 
HETATM   12  C   UNL     1       1.097  -2.638   0.000  1.00  0.00     0.017 A 
ENDROOT
BRANCH  12  13
HETATM   13  C   UNL     1       2.441  -1.973   0.000  1.00  0.00    -0.038 A 
HETATM   14  C   UNL     1       2.537  -0.476   0.000  1.00  0.00     0.022 A 
HETATM   15  C   UNL     1       3.882   0.189   0.000  1.00  0.00     0.004 A 
HETATM   16  C   UNL     1       5.130  -0.643   0.000  1.00  0.00     0.001 A 
HETATM   17  C   UNL     1       5.034  -2.139   0.000  1.00  0.00     0.004 A 
HETATM   18  C   UNL     1       3.689  -2.805   0.000  1.00  0.00     0.022 A 
ENDBRANCH  12  13
TORSDOF 1
