REMARK  2 active torsions:
REMARK  status: ('A' for Active; 'I' for Inactive)
REMARK    1  A    between atoms: C_9  and  N_13 
REMARK    2  A    between atoms: N_13  and  C_15 
ROOT
HETATM    1  C   UNL     1       3.000   4.647   0.000  1.00  0.00     0.004 A 
HETATM    2  C   UNL     1       2.250   3.348   0.000  1.00  0.00     0.205 A 
HETATM    3  O   UNL     1       0.750   3.348   0.000  1.00  0.00    -0.170 OA
HETATM    4  C   UNL     1       4.500   2.049   0.000  1.00  0.00     0.054 A 
HETATM    5  C   UNL     1       5.250   3.348   0.000  1.00  0.00    -0.021 A 
HETATM    6  C   UNL     1       5.250   0.750   0.000  1.00  0.00     0.051 A 
HETATM    7  C   UNL     1       6.750   3.348   0.000  1.00  0.00     0.065 A 
HETATM    8  C   UNL     1       6.750   0.750   0.000  1.00  0.00     0.048 A 
HETATM    9  C   UNL     1       7.500   2.049   0.000  1.00  0.00     0.041 A 
HETATM   10  C   UNL     1       2.250   5.946   0.000  1.00  0.00     0.030 C 
HETATM   11  C   UNL     1       4.500   4.647   0.000  1.00  0.00     0.049 A 
HETATM   12  N   UNL     1       3.000   2.049   0.000  1.00  0.00    -0.226 NA
ENDROOT
BRANCH   9  13
HETATM   13  N   UNL     1       9.000   2.049   0.000  1.00  0.00    -0.262 NA
BRANCH  13  14
HETATM   14  C   UNL     1       9.750   3.348   0.000  1.00  0.00     0.037 C 
HETATM   15  C   UNL     1      11.250   3.348   0.000  1.00  0.00     0.047 C 
HETATM   16  C   UNL     1       9.000   4.647   0.000  1.00  0.00     0.047 C 
ENDBRANCH  13  14
ENDBRANCH   9  13
TORSDOF 2
