REMARK  2 active torsions:
REMARK  status: ('A' for Active; 'I' for Inactive)
REMARK    1  A    between atoms: C_16  and  C_20 
REMARK    2  A    between atoms: C_20  and  C_21 
ROOT
HETATM    1  O   UNL     1       1.299   3.549   0.000  1.00  0.00    -0.179 OA
HETATM    2  S   UNL     1       2.049   2.250   0.000  1.00  0.00     0.231 S 
HETATM    3  O   UNL     1       2.799   0.951   0.000  1.00  0.00    -0.212 OA
HETATM    4 CL   UNL     1       2.049   5.250   0.000  1.00  0.00    -0.010 Cl
HETATM    5  C   UNL     1       3.348   4.500   0.000  1.00  0.00     0.058 A 
HETATM    6  C   UNL     1       3.348   3.000   0.000  1.00  0.00     0.080 A 
HETATM    7  C   UNL     1       4.647   5.250   0.000  1.00  0.00     0.062 A 
HETATM    8  C   UNL     1       4.647   2.250   0.000  1.00  0.00     0.056 A 
HETATM    9  C   UNL     1       5.946   3.000   0.000  1.00  0.00     0.125 A 
HETATM   10  C   UNL     1       5.946   4.500   0.000  1.00  0.00     0.098 A 
HETATM   11  O   UNL     1       7.245   3.750   0.000  1.00  0.00     0.000 OA
HETATM   12  N   UNL     1       7.245   5.250   0.000  1.00  0.00    -0.364 N 
HETATM   13  S   UNL     1       7.245   2.250   0.000  1.00  0.00     0.130 S 
HETATM   14  H   UNL     1       7.245   6.750   0.000  1.00  0.00     0.161 HD
HETATM   15  O   UNL     1       7.245   0.750   0.000  1.00  0.00    -0.234 OA
HETATM   16  C   UNL     1       8.544   4.500   0.000  1.00  0.00     0.098 A 
HETATM   17  N   UNL     1       8.544   3.000   0.000  1.00  0.00    -0.294 N 
HETATM   18  H   UNL     1       9.843   2.250   0.000  1.00  0.00     0.177 HD
HETATM   19  N   UNL     1       0.750   1.500   0.000  1.00  0.00    -0.056 N 
ENDROOT
BRANCH  16  20
HETATM   20  C   UNL     1       9.843   5.250   0.000  1.00  0.00     0.062 C 
BRANCH  20  21
HETATM   21  C   UNL     1      11.142   4.500   0.000  1.00  0.00     0.007 A 
HETATM   22  C   UNL     1      12.441   5.250   0.000  1.00  0.00     0.000 A 
HETATM   23  C   UNL     1      13.740   4.500   0.000  1.00  0.00     0.000 A 
HETATM   24  C   UNL     1      13.740   3.000   0.000  1.00  0.00     0.000 A 
HETATM   25  C   UNL     1      12.441   2.250   0.000  1.00  0.00     0.000 A 
HETATM   26  C   UNL     1      11.142   3.000   0.000  1.00  0.00     0.000 A 
ENDBRANCH  20  21
ENDBRANCH  16  20
TORSDOF 2
