REMARK  6 active torsions:
REMARK  status: ('A' for Active; 'I' for Inactive)
REMARK    1  A    between atoms: C_8  and  N_12 
REMARK    2  A    between atoms: N_10  and  C_15 
REMARK    3  A    between atoms: N_10  and  C_16 
REMARK    4  A    between atoms: N_10  and  C_18 
REMARK    5  A    between atoms: N_12  and  C_14 
REMARK    6  A    between atoms: C_14  and  C_15 
ROOT
HETATM    1  N   UNL     1       1.432   6.000   0.000  1.00  0.00    -0.094 N 
HETATM    2  C   UNL     1       2.731   5.250   0.000  1.00  0.00     0.043 C 
HETATM    3  C   UNL     1       4.030   4.500   0.000  1.00  0.00     0.167 A 
HETATM    4  C   UNL     1       4.030   3.000   0.000  1.00  0.00     0.187 A 
HETATM    5  N   UNL     1       5.329   2.250   0.000  1.00  0.00    -0.151 N 
HETATM    6  O   UNL     1       5.329   0.750   0.000  1.00  0.00    -0.077 OA
HETATM    7  N   UNL     1       5.329   5.250   0.000  1.00  0.00    -0.235 NA
HETATM    8  C   UNL     1       6.628   3.000   0.000  1.00  0.00     0.181 A 
HETATM    9  C   UNL     1       6.628   4.500   0.000  1.00  0.00     0.096 A 
HETATM   10  N   UNL     1       2.731   2.250   0.000  1.00  0.00    -0.077 NA
HETATM   11  C   UNL     1       7.928   5.250   0.000  1.00  0.00     0.055 C 
ENDROOT
BRANCH   8  12
HETATM   12  N   UNL     1       7.928   2.250   0.000  1.00  0.00    -0.249 NA
BRANCH  12  13
HETATM   13  C   UNL     1       9.076   3.214   0.000  1.00  0.00     0.151 C 
BRANCH  13  14
HETATM   14  C   UNL     1      10.486   2.701   0.000  1.00  0.00     0.124 C 
BRANCH  14  15
HETATM   15  N   UNL     1      10.486   1.201   0.000  1.00  0.00    -0.367 N 
BRANCH  15  16
HETATM   16  C   UNL     1       9.187   0.451   0.000  1.00  0.00     0.097 C 
HETATM   17  C   UNL     1       9.187  -1.049   0.000  1.00  0.00     0.026 C 
ENDBRANCH  15  16
BRANCH  15  18
HETATM   18  C   UNL     1      11.785   0.451   0.000  1.00  0.00     0.097 C 
HETATM   19  C   UNL     1      13.084   1.201   0.000  1.00  0.00     0.026 C 
ENDBRANCH  15  18
ENDBRANCH  14  15
ENDBRANCH  13  14
ENDBRANCH  12  13
ENDBRANCH   8  12
TORSDOF 6
