REMARK  4 active torsions:
REMARK  status: ('A' for Active; 'I' for Inactive)
REMARK    1  A    between atoms: C_5  and  C_8 
REMARK    2  A    between atoms: C_6  and  O_18 
REMARK    3  A    between atoms: C_9  and  C_10 
REMARK    4  A    between atoms: C_16  and  O_20 
ROOT
HETATM    1  O   UNL     1      -5.320  -1.897   0.000  1.00  0.00    -0.168 OA
HETATM    2  N   UNL     1      -3.864  -4.139   0.000  1.00  0.00    -0.219 NA
HETATM    3  C   UNL     1      -4.176  -5.606   0.000  1.00  0.00     0.089 A 
HETATM    4  C   UNL     1      -5.667  -5.763   0.000  1.00  0.00     0.089 A 
HETATM    5  C   UNL     1      -5.163  -3.389   0.000  1.00  0.00     0.364 A 
HETATM    6  N   UNL     1      -6.277  -4.393   0.000  1.00  0.00    -0.219 NA
ENDROOT
BRANCH   3   7
HETATM    7  C   UNL     1      -3.172  -6.721   0.000  1.00  0.00    -0.025 A 
HETATM    8  C   UNL     1      -1.705  -6.409   0.000  1.00  0.00     0.026 A 
HETATM    9  C   UNL     1      -0.701  -7.524   0.000  1.00  0.00     0.034 A 
HETATM   10  C   UNL     1      -1.165  -8.951   0.000  1.00  0.00     0.116 A 
HETATM   11  C   UNL     1      -2.632  -9.262   0.000  1.00  0.00     0.034 A 
HETATM   12  C   UNL     1      -3.635  -8.148   0.000  1.00  0.00     0.026 A 
BRANCH  10  13
HETATM   13  O   UNL     1      -0.161 -10.065   0.000  1.00  0.00    -0.354 OA
HETATM   14  C   UNL     1       1.306  -9.754   0.000  1.00  0.00     0.174 C 
ENDBRANCH  10  13
ENDBRANCH   3   7
BRANCH   4  15
HETATM   15  C   UNL     1      -6.417  -7.062   0.000  1.00  0.00    -0.025 A 
HETATM   16  C   UNL     1      -5.667  -8.361   0.000  1.00  0.00     0.026 A 
HETATM   17  C   UNL     1      -6.417  -9.660   0.000  1.00  0.00     0.034 A 
HETATM   18  C   UNL     1      -7.917  -9.660   0.000  1.00  0.00     0.116 A 
HETATM   19  C   UNL     1      -8.667  -8.361   0.000  1.00  0.00     0.034 A 
HETATM   20  C   UNL     1      -7.917  -7.062   0.000  1.00  0.00     0.026 A 
BRANCH  18  21
HETATM   21  O   UNL     1      -8.667 -10.959   0.000  1.00  0.00    -0.354 OA
HETATM   22  C   UNL     1     -10.167 -10.959   0.000  1.00  0.00     0.174 C 
ENDBRANCH  18  21
ENDBRANCH   4  15
TORSDOF 4
