REMARK  1 active torsions:
REMARK  status: ('A' for Active; 'I' for Inactive)
REMARK    1  A    between atoms: C_5  and  C_8 
ROOT
HETATM    1  O   UNL     1      -6.221   1.226   0.000  1.00  0.00    -0.316 OA
HETATM    2  O   UNL     1     -10.118  -1.024   0.000  1.00  0.00    -0.195 OA
HETATM    3  C   UNL     1      -6.221  -0.275   0.000  1.00  0.00     0.076 A 
HETATM    4  C   UNL     1      -7.520  -1.024   0.000  1.00  0.00     0.105 A 
HETATM    5  C   UNL     1      -8.819  -0.275   0.000  1.00  0.00     0.113 A 
HETATM    6  C   UNL     1      -8.819   1.226   0.000  1.00  0.00     0.021 A 
HETATM    7  C   UNL     1      -7.520   3.475   0.000  1.00  0.00     0.054 A 
HETATM    8  C   UNL     1      -8.819   4.226   0.000  1.00  0.00     0.040 A 
HETATM    9  C   UNL     1      -7.520   1.976   0.000  1.00  0.00     0.075 A 
HETATM   10  C   UNL     1     -10.118   3.475   0.000  1.00  0.00     0.157 A 
HETATM   11  C   UNL     1     -10.118   1.976   0.000  1.00  0.00     0.063 A 
HETATM   12  O   UNL     1     -11.417   4.226   0.000  1.00  0.00    -0.223 OA
ENDROOT
BRANCH   3  13
HETATM   13  C   UNL     1      -4.922  -1.024   0.000  1.00  0.00    -0.025 A 
HETATM   14  C   UNL     1      -3.623  -0.275   0.000  1.00  0.00     0.024 A 
HETATM   15  C   UNL     1      -2.324  -1.024   0.000  1.00  0.00     0.004 A 
HETATM   16  C   UNL     1      -2.324  -2.525   0.000  1.00  0.00     0.001 A 
HETATM   17  C   UNL     1      -3.623  -3.275   0.000  1.00  0.00     0.004 A 
HETATM   18  C   UNL     1      -4.922  -2.525   0.000  1.00  0.00     0.024 A 
ENDBRANCH   3  13
TORSDOF 1
