REMARK  6 active torsions:
REMARK  status: ('A' for Active; 'I' for Inactive)
REMARK    1  A    between atoms: C_7  and  C_32 
REMARK    2  A    between atoms: C_8  and  N_31 
REMARK    3  A    between atoms: C_9  and  N_31 
REMARK    4  A    between atoms: C_13  and  C_14 
REMARK    5  A    between atoms: C_26  and  N_34 
REMARK    6  A    between atoms: C_28  and  N_34 
ROOT
HETATM    1  O   UNL     1       5.946 -15.000   0.000  1.00  0.00    -0.339 OA
HETATM    2  C   UNL     1       7.245 -12.750   0.000  1.00  0.00     0.144 A 
HETATM    3  C   UNL     1       7.245 -14.250   0.000  1.00  0.00     0.148 A 
HETATM    4  C   UNL     1       5.946 -12.000   0.000  1.00  0.00     0.134 A 
HETATM    5  C   UNL     1       4.647 -12.750   0.000  1.00  0.00     0.085 A 
HETATM    6  C   UNL     1       4.647 -14.250   0.000  1.00  0.00     0.187 A 
HETATM    7  C   UNL     1       7.245  -9.750   0.000  1.00  0.00     0.224 A 
HETATM    8  C   UNL     1       8.544 -10.500   0.000  1.00  0.00     0.250 A 
HETATM    9  O   UNL     1       9.843  -9.750   0.000  1.00  0.00    -0.166 OA
HETATM   10  C   UNL     1       5.946 -13.500   0.000  1.00  0.00     0.115 A 
HETATM   11  O   UNL     1       5.946 -10.500   0.000  1.00  0.00    -0.315 OA
HETATM   12  N   UNL     1       8.544 -12.000   0.000  1.00  0.00    -0.242 NA
HETATM   13  O   UNL     1       5.946 -13.500   0.000  1.00  0.00     0.000 OA
ENDROOT
BRANCH   7  14
HETATM   14  N   UNL     1       7.245  -8.250   0.000  1.00  0.00    -0.199 NA
BRANCH  14  15
HETATM   15  C   UNL     1       5.946  -7.500   0.000  1.00  0.00     0.165 A 
HETATM   16  C   UNL     1       5.946  -6.000   0.000  1.00  0.00     0.094 A 
HETATM   17  C   UNL     1       4.647  -5.250   0.000  1.00  0.00    -0.034 A 
HETATM   18  C   UNL     1       4.647  -3.750   0.000  1.00  0.00     0.043 A 
HETATM   19  C   UNL     1       3.348  -6.000   0.000  1.00  0.00    -0.003 A 
HETATM   20  C   UNL     1       3.348  -3.000   0.000  1.00  0.00    -0.048 A 
HETATM   21  C   UNL     1       3.348  -1.500   0.000  1.00  0.00     0.022 A 
HETATM   22  C   UNL     1       2.049  -3.750   0.000  1.00  0.00    -0.047 A 
HETATM   23  C   UNL     1       2.049  -0.750   0.000  1.00  0.00     0.005 A 
HETATM   24  C   UNL     1       0.750  -1.500   0.000  1.00  0.00     0.005 A 
HETATM   25  C   UNL     1       0.750  -3.000   0.000  1.00  0.00     0.022 A 
HETATM   26  C   UNL     1       2.049  -5.250   0.000  1.00  0.00     0.049 A 
HETATM   27  C   UNL     1       3.348  -7.500   0.000  1.00  0.00     0.089 A 
HETATM   28  O   UNL     1       4.647  -8.250   0.000  1.00  0.00    -0.294 OA
BRANCH  27  29
HETATM   29  C   UNL     1       2.049  -8.250   0.000  1.00  0.00    -0.021 C 
HETATM   30  C   UNL     1       2.049  -9.750   0.000  1.00  0.00     0.028 C 
HETATM   31  C   UNL     1       0.750  -7.500   0.000  1.00  0.00     0.028 C 
ENDBRANCH  27  29
ENDBRANCH  14  15
ENDBRANCH   7  14
BRANCH   6  32
HETATM   32  N   UNL     1       3.348 -15.000   0.000  1.00  0.00    -0.228 NA
BRANCH  32  33
HETATM   33  C   UNL     1       3.348 -16.500   0.000  1.00  0.00     0.178 A 
HETATM   34  N   UNL     1       2.049 -17.250   0.000  1.00  0.00    -0.225 NA
HETATM   35  C   UNL     1       2.049 -18.750   0.000  1.00  0.00     0.254 A 
HETATM   36  N   UNL     1       3.348 -19.500   0.000  1.00  0.00    -0.225 NA
HETATM   37  C   UNL     1       4.647 -18.750   0.000  1.00  0.00     0.178 A 
HETATM   38  C   UNL     1       4.647 -17.250   0.000  1.00  0.00     0.148 A 
HETATM   39  N   UNL     1       6.074 -19.213   0.000  1.00  0.00    -0.225 NA
HETATM   40  N   UNL     1       6.074 -16.787   0.000  1.00  0.00    -0.238 NA
HETATM   41  C   UNL     1       6.955 -18.000   0.000  1.00  0.00     0.253 A 
ENDBRANCH  32  33
ENDBRANCH   6  32
TORSDOF 6
