REMARK  4 active torsions:
REMARK  status: ('A' for Active; 'I' for Inactive)
REMARK    1  A    between atoms: C_7  and  C_15 
REMARK    2  A    between atoms: C_8  and  O_21 
REMARK    3  A    between atoms: C_15  and  O_16 
REMARK    4  A    between atoms: O_16  and  C_17 
ROOT
HETATM    1  C   UNL     1       0.021  10.248   0.000  1.00  0.00     0.020 A 
HETATM    2  C   UNL     1       0.021   8.748   0.000  1.00  0.00     0.093 A 
HETATM    3  C   UNL     1       1.321   7.998   0.000  1.00  0.00     0.145 A 
HETATM    4  C   UNL     1       2.619   8.748   0.000  1.00  0.00     0.042 A 
HETATM    5  C   UNL     1       2.619  10.248   0.000  1.00  0.00     0.085 A 
HETATM    6  C   UNL     1       1.321  10.998   0.000  1.00  0.00     0.143 A 
HETATM    7  C   UNL     1       4.046   8.285   0.000  1.00  0.00     0.034 A 
HETATM    8  C   UNL     1       4.928   9.498   0.000  1.00  0.00     0.204 A 
HETATM    9  N   UNL     1       4.046  10.712   0.000  1.00  0.00    -0.323 N 
HETATM   10  C   UNL     1       6.354   9.962   0.000  1.00  0.00     0.441 A 
HETATM   11  C   UNL     1       6.354  11.462   0.000  1.00  0.00     0.338 A 
HETATM   12  C   UNL     1       4.928  11.925   0.000  1.00  0.00     0.132 A 
HETATM   13  O   UNL     1       1.321  12.498   0.000  1.00  0.00    -0.189 OA
HETATM   14  O   UNL     1       1.321   6.498   0.000  1.00  0.00    -0.189 OA
HETATM   15  N   UNL     1       7.653  10.712   0.000  1.00  0.00     0.328 N 
HETATM   16  C   UNL     1      -1.278  10.998   0.000  1.00  0.00     0.034 C 
HETATM   17  N   UNL     1      -1.278   7.998   0.000  1.00  0.00    -0.099 NA
ENDROOT
BRANCH   7  18
HETATM   18  C   UNL     1       4.510   6.858   0.000  1.00  0.00     0.174 C 
BRANCH  18  19
HETATM   19  O   UNL     1       3.506   5.743   0.000  1.00  0.00    -0.295 OA
BRANCH  19  20
HETATM   20  C   UNL     1       3.969   4.317   0.000  1.00  0.00     0.581 C 
HETATM   21  O   UNL     1       5.437   4.005   0.000  1.00  0.00    -0.151 OA
HETATM   22  N   UNL     1       2.966   3.202   0.000  1.00  0.00     0.688 N 
ENDBRANCH  19  20
ENDBRANCH  18  19
ENDBRANCH   7  18
BRANCH   8  23
HETATM   23  O   UNL     1       6.383   7.496   0.000  1.00  0.00    -0.343 OA
HETATM   24  C   UNL     1       7.874   7.653   0.000  1.00  0.00     0.106 C 
ENDBRANCH   8  23
TORSDOF 4
