REMARK  2 active torsions:
REMARK  status: ('A' for Active; 'I' for Inactive)
REMARK    1  A    between atoms: C_2  and  C_14 
REMARK    2  A    between atoms: C_5  and  C_17 
ROOT
HETATM    1  N   UNL     1      -3.269  -1.319   0.000  1.00  0.00    -0.252 NA
HETATM    2  C   UNL     1      -2.612   0.030   0.000  1.00  0.00     0.132 A 
HETATM    3  C   UNL     1      -2.189  -2.360   0.000  1.00  0.00     0.165 A 
HETATM    4  N   UNL     1      -1.127  -0.178   0.000  1.00  0.00    -0.300 N 
HETATM    5  C   UNL     1      -0.865  -1.655   0.000  1.00  0.00     0.180 A 
HETATM    6  C   UNL     1       1.411   0.798   0.000  1.00  0.00     0.029 A 
HETATM    7 CL   UNL     1       1.590   3.390   0.000  1.00  0.00    -0.087 Cl
HETATM    8 CL   UNL     1       1.231  -1.794   0.000  1.00  0.00    -0.147 Cl
HETATM    9  C   UNL     1       2.069  -0.550   0.000  1.00  0.00     0.024 A 
HETATM   10  C   UNL     1       2.249   2.042   0.000  1.00  0.00     0.037 A 
HETATM   11  C   UNL     1       3.745   1.938   0.000  1.00  0.00     0.038 A 
HETATM   12  C   UNL     1       3.566  -0.653   0.000  1.00  0.00     0.037 A 
HETATM   13  C   UNL     1       4.404   0.591   0.000  1.00  0.00     0.011 A 
HETATM   14  C   UNL     1      -0.086   0.901   0.000  1.00  0.00     0.079 A 
ENDROOT
BRANCH   2  15
HETATM   15  C   UNL     1      -3.317   1.353   0.000  1.00  0.00    -0.010 C 
HETATM   16  C   UNL     1      -4.817   1.405   0.000  1.00  0.00     0.029 C 
HETATM   17  C   UNL     1      -2.523   2.626   0.000  1.00  0.00     0.029 C 
ENDBRANCH   2  15
BRANCH   5  18
HETATM   18  C   UNL     1       0.349  -2.536   0.000  1.00  0.00     0.220 C 
HETATM   19  O   UNL     1       0.193  -4.028   0.000  1.00  0.00    -0.217 OA
ENDBRANCH   5  18
TORSDOF 2
