REMARK  2 active torsions:
REMARK  status: ('A' for Active; 'I' for Inactive)
REMARK    1  A    between atoms: C_2  and  C_6 
REMARK    2  A    between atoms: C_5  and  C_12 
ROOT
HETATM    1  N   UNL     1      -5.886   1.652   0.000  1.00  0.00    -0.249 NA
HETATM    2  C   UNL     1      -5.004   2.866   0.000  1.00  0.00     0.131 A 
HETATM    3  C   UNL     1      -5.004   0.439   0.000  1.00  0.00     0.169 A 
HETATM    4  N   UNL     1      -3.577   2.402   0.000  1.00  0.00    -0.315 N 
HETATM    5  C   UNL     1      -3.577   0.902   0.000  1.00  0.00     0.074 A 
HETATM    6  C   UNL     1      -2.364   3.284   0.000  1.00  0.00     0.132 C 
ENDROOT
BRANCH   2   7
HETATM    7  C   UNL     1      -5.468   4.292   0.000  1.00  0.00    -0.011 A 
HETATM    8  C   UNL     1      -6.935   4.604   0.000  1.00  0.00     0.025 A 
HETATM    9  C   UNL     1      -7.398   6.031   0.000  1.00  0.00     0.004 A 
HETATM   10  C   UNL     1      -6.394   7.146   0.000  1.00  0.00     0.001 A 
HETATM   11  C   UNL     1      -4.927   6.834   0.000  1.00  0.00     0.004 A 
HETATM   12  C   UNL     1      -4.464   5.407   0.000  1.00  0.00     0.025 A 
ENDBRANCH   2   7
BRANCH   5  13
HETATM   13  C   UNL     1      -2.364   0.021   0.000  1.00  0.00     0.223 C 
HETATM   14  O   UNL     1      -0.994   0.631   0.000  1.00  0.00    -0.214 OA
ENDBRANCH   5  13
TORSDOF 2
