REMARK  3 active torsions:
REMARK  status: ('A' for Active; 'I' for Inactive)
REMARK    1  A    between atoms: C_10  and  C_12 
REMARK       I    between atoms: C_12  and  N_16 
REMARK    2  A    between atoms: C_14  and  N_16 
REMARK    3  A    between atoms: C_14  and  C_19 
ROOT
HETATM    1  C   UNL     1      -1.774   6.074   0.000  1.00  0.00     0.005 A 
HETATM    2  C   UNL     1      -1.774   4.574   0.000  1.00  0.00     0.005 A 
HETATM    3  C   UNL     1      -0.475   6.824   0.000  1.00  0.00     0.028 A 
HETATM    4  C   UNL     1      -0.475   3.824   0.000  1.00  0.00     0.027 A 
HETATM    5  C   UNL     1       0.824   6.074   0.000  1.00  0.00    -0.000 A 
HETATM    6  C   UNL     1       0.824   4.574   0.000  1.00  0.00    -0.017 A 
HETATM    7  C   UNL     1       2.123   6.824   0.000  1.00  0.00     0.127 A 
HETATM    8  C   UNL     1       2.123   3.824   0.000  1.00  0.00     0.036 A 
HETATM    9 CL   UNL     1       2.123   2.324   0.000  1.00  0.00    -0.087 Cl
HETATM   10  C   UNL     1       3.422   6.074   0.000  1.00  0.00     0.051 A 
HETATM   11  C   UNL     1       3.422   4.574   0.000  1.00  0.00     0.070 A 
HETATM   12  O   UNL     1       2.123   8.324   0.000  1.00  0.00    -0.191 OA
ENDROOT
BRANCH  10  13
HETATM   13  C   UNL     1       4.721   6.824   0.000  1.00  0.00     0.207 C 
HETATM   14  O   UNL     1       4.721   8.324   0.000  1.00  0.00    -0.170 OA
HETATM   15  N   UNL     1       6.020   6.074   0.000  1.00  0.00    -0.240 NA
BRANCH  15  16
HETATM   16  C   UNL     1       7.319   6.824   0.000  1.00  0.00     0.164 C 
HETATM   17  C   UNL     1       8.069   5.524   0.000  1.00  0.00     0.035 C 
HETATM   18  C   UNL     1       6.569   8.123   0.000  1.00  0.00     0.035 C 
BRANCH  16  19
HETATM   19  C   UNL     1       8.618   7.574   0.000  1.00  0.00     0.206 C 
HETATM   20  O   UNL     1       8.618   9.074   0.000  1.00  0.00    -0.646 OA
HETATM   21  O   UNL     1       9.917   6.824   0.000  1.00  0.00    -0.646 OA
ENDBRANCH  16  19
ENDBRANCH  15  16
ENDBRANCH  10  13
TORSDOF 3
