REMARK  5 active torsions:
REMARK  status: ('A' for Active; 'I' for Inactive)
REMARK    1  A    between atoms: C_8  and  N_10 
REMARK    2  A    between atoms: N_10  and  N_23 
REMARK    3  A    between atoms: S_11  and  C_14 
REMARK    4  A    between atoms: S_11  and  N_23 
REMARK    5  A    between atoms: C_19  and  N_25 
REMARK       I    between atoms: C_20  and  N_25 
ROOT
HETATM    1  S   UNL     1       9.406 -11.142   0.000  1.00  0.00     0.281 S 
HETATM    2  O   UNL     1       9.406 -12.642   0.000  1.00  0.00    -0.202 OA
HETATM    3  O   UNL     1       9.406  -9.642   0.000  1.00  0.00    -0.202 OA
ENDROOT
BRANCH   1   4
HETATM    4  C   UNL     1      10.906 -11.142   0.000  1.00  0.00     0.137 A 
HETATM    5  C   UNL     1      11.656  -9.843   0.000  1.00  0.00     0.025 A 
HETATM    6  C   UNL     1      13.156  -9.843   0.000  1.00  0.00     0.048 A 
HETATM    7  C   UNL     1      13.906 -11.142   0.000  1.00  0.00     0.070 A 
HETATM    8  C   UNL     1      13.156 -12.441   0.000  1.00  0.00     0.062 A 
HETATM    9  C   UNL     1      11.656 -12.441   0.000  1.00  0.00     0.060 A 
HETATM   10  N   UNL     1      13.906 -13.740   0.000  1.00  0.00    -0.104 NA
BRANCH   7  11
HETATM   11  N   UNL     1      15.406 -11.142   0.000  1.00  0.00    -0.227 NA
HETATM   12  C   UNL     1      16.156  -9.843   0.000  1.00  0.00     0.190 C 
HETATM   13  O   UNL     1      15.406  -8.544   0.000  1.00  0.00    -0.174 OA
HETATM   14  C   UNL     1      17.656  -9.843   0.000  1.00  0.00     0.083 C 
ENDBRANCH   7  11
ENDBRANCH   1   4
BRANCH   1  15
HETATM   15  N   UNL     1       7.906 -11.142   0.000  1.00  0.00    -0.056 NA
BRANCH  15  16
HETATM   16  N   UNL     1       7.156  -9.843   0.000  1.00  0.00    -0.113 NA
BRANCH  16  17
HETATM   17  C   UNL     1       5.656  -9.843   0.000  1.00  0.00     0.197 A 
HETATM   18  S   UNL     1       4.775  -8.630   0.000  1.00  0.00    -0.052 SA
HETATM   19  C   UNL     1       3.348  -9.093   0.000  1.00  0.00     0.022 A 
HETATM   20  C   UNL     1       2.049  -8.343   0.000  1.00  0.00     0.034 A 
HETATM   21  C   UNL     1       3.348 -10.593   0.000  1.00  0.00     0.041 A 
HETATM   22  C   UNL     1       0.750  -9.093   0.000  1.00  0.00     0.006 A 
HETATM   23  C   UNL     1       0.750 -10.593   0.000  1.00  0.00     0.007 A 
HETATM   24  C   UNL     1       2.049 -11.343   0.000  1.00  0.00     0.044 A 
HETATM   25  N   UNL     1       4.775 -11.057   0.000  1.00  0.00    -0.308 N 
HETATM   26  C   UNL     1       5.238 -12.483   0.000  1.00  0.00     0.132 C 
ENDBRANCH  16  17
ENDBRANCH  15  16
ENDBRANCH   1  15
TORSDOF 5
