REMARK  2 active torsions:
REMARK  status: ('A' for Active; 'I' for Inactive)
REMARK    1  A    between atoms: C_5  and  C_8 
REMARK    2  A    between atoms: C_6  and  O_17 
ROOT
HETATM    1  H   UNL     1       6.981   1.616   0.000  1.00  0.00     0.165 HD
HETATM    2  N   UNL     1       5.867   0.612   0.000  1.00  0.00    -0.361 N 
HETATM    3  C   UNL     1       6.024  -0.880   0.000  1.00  0.00     0.029 A 
HETATM    4  C   UNL     1       4.653  -1.490   0.000  1.00  0.00     0.066 A 
HETATM    5  C   UNL     1       3.650  -0.375   0.000  1.00  0.00    -0.027 A 
HETATM    6  C   UNL     1       3.650   2.223   0.000  1.00  0.00     0.043 A 
HETATM    7  C   UNL     1       2.150   2.223   0.000  1.00  0.00     0.006 A 
HETATM    8  C   UNL     1       4.399   0.924   0.000  1.00  0.00     0.026 A 
HETATM    9  C   UNL     1       1.399   0.924   0.000  1.00  0.00     0.005 A 
HETATM   10  C   UNL     1       2.150  -0.375   0.000  1.00  0.00     0.024 A 
ENDROOT
BRANCH   3  11
HETATM   11  C   UNL     1       7.323  -1.630   0.000  1.00  0.00    -0.032 A 
HETATM   12  C   UNL     1       8.622  -0.880   0.000  1.00  0.00     0.026 A 
HETATM   13  C   UNL     1       9.921  -1.630   0.000  1.00  0.00     0.034 A 
HETATM   14  C   UNL     1       9.921  -3.130   0.000  1.00  0.00     0.116 A 
HETATM   15  C   UNL     1       8.622  -3.880   0.000  1.00  0.00     0.034 A 
HETATM   16  C   UNL     1       7.323  -3.130   0.000  1.00  0.00     0.026 A 
BRANCH  14  17
HETATM   17  O   UNL     1      11.220  -3.880   0.000  1.00  0.00    -0.354 OA
HETATM   18  C   UNL     1      12.519  -3.130   0.000  1.00  0.00     0.174 C 
ENDBRANCH  14  17
ENDBRANCH   3  11
TORSDOF 2
