REMARK  0 active torsions:
REMARK  status: ('A' for Active; 'I' for Inactive)
ROOT
HETATM    1  C   UNL     1      -8.684  -7.900   0.000  1.00  0.00     0.149 A 
HETATM    2  N   UNL     1      -9.566  -9.114   0.000  1.00  0.00    -0.074 NA
HETATM    3  O   UNL     1      -8.684 -10.327   0.000  1.00  0.00    -0.246 OA
HETATM    4  C   UNL     1      -7.258  -8.364   0.000  1.00  0.00     0.011 A 
HETATM    5  C   UNL     1      -7.258  -9.864   0.000  1.00  0.00     0.092 A 
HETATM    6  C   UNL     1      -5.959  -7.614   0.000  1.00  0.00    -0.041 A 
HETATM    7  C   UNL     1      -5.959 -10.614   0.000  1.00  0.00     0.053 A 
HETATM    8  C   UNL     1      -4.660  -8.364   0.000  1.00  0.00     0.029 A 
HETATM    9  C   UNL     1      -4.660  -9.864   0.000  1.00  0.00     0.011 A 
HETATM   10  C   UNL     1      -3.361  -6.114   0.000  1.00  0.00    -0.044 A 
HETATM   11  C   UNL     1      -3.361  -7.614   0.000  1.00  0.00     0.040 A 
HETATM   12  C   UNL     1      -3.361 -10.614   0.000  1.00  0.00     0.005 A 
HETATM   13  C   UNL     1      -2.062  -5.364   0.000  1.00  0.00    -0.039 A 
HETATM   14  C   UNL     1      -2.062  -8.364   0.000  1.00  0.00    -0.048 A 
HETATM   15  C   UNL     1      -2.062  -9.864   0.000  1.00  0.00     0.022 A 
HETATM   16  C   UNL     1      -0.762  -7.614   0.000  1.00  0.00    -0.046 A 
HETATM   17  C   UNL     1      -0.762  -6.114   0.000  1.00  0.00     0.067 A 
HETATM   18  C   UNL     1       0.664  -5.650   0.000  1.00  0.00     0.136 A 
HETATM   19  C   UNL     1       0.664  -8.077   0.000  1.00  0.00     0.025 A 
HETATM   20  C   UNL     1       1.546  -6.864   0.000  1.00  0.00     0.038 A 
HETATM   21  C   UNL     1       0.301  -4.195   0.000  1.00  0.00     0.006 A 
HETATM   22  C   UNL     1      -0.062  -2.739   0.000  1.00  0.00    -0.039 C 
HETATM   23  C   UNL     1      -4.660  -6.864   0.000  1.00  0.00     0.040 A 
HETATM   24  C   UNL     1      -0.606  -4.622   0.000  1.00  0.00     0.074 A 
HETATM   25  O   UNL     1       1.963  -4.900   0.000  1.00  0.00    -0.223 OA
ENDROOT
TORSDOF 0
