REMARK  4 active torsions:
REMARK  status: ('A' for Active; 'I' for Inactive)
REMARK    1  A    between atoms: C_2  and  C_10 
REMARK    2  A    between atoms: C_7  and  N_14 
REMARK    3  A    between atoms: C_10  and  N_12 
REMARK    4  A    between atoms: C_11  and  N_12 
ROOT
HETATM    1  C   UNL     2       8.544   8.799   0.000  1.00  0.00     0.166 C 
HETATM    2  S   UNL     2       7.245   8.049   0.000  1.00  0.00     0.117 S 
HETATM    3  O   UNL     2       7.995   6.750   0.000  1.00  0.00    -0.594 OA
HETATM    4  O   UNL     2       5.946   7.299   0.000  1.00  0.00    -0.594 OA
HETATM    5  O   UNL     2       6.495   9.348   0.000  1.00  0.00    -0.594 OA
ENDROOT
TORSDOF 4
