REMARK  0 active torsions:
REMARK  status: ('A' for Active; 'I' for Inactive)
ROOT
HETATM    1  C   UNL     1       3.123   4.500   0.000  1.00  0.00     0.005 A 
HETATM    2  C   UNL     1       3.123   3.000   0.000  1.00  0.00     0.005 A 
HETATM    3  C   UNL     1       4.422   5.250   0.000  1.00  0.00     0.025 A 
HETATM    4  C   UNL     1       4.422   2.250   0.000  1.00  0.00     0.027 A 
HETATM    5  C   UNL     1       5.721   4.500   0.000  1.00  0.00    -0.031 A 
HETATM    6  C   UNL     1       5.721   3.000   0.000  1.00  0.00    -0.013 A 
HETATM    7  C   UNL     1       7.021   2.250   0.000  1.00  0.00     0.050 A 
HETATM    8  C   UNL     1       7.021   5.250   0.000  1.00  0.00    -0.024 A 
HETATM    9  N   UNL     1       8.319   3.000   0.000  1.00  0.00    -0.271 NA
HETATM   10  C   UNL     1       8.319   4.500   0.000  1.00  0.00     0.147 A 
HETATM   11  C   UNL     1       7.021   6.750   0.000  1.00  0.00     0.028 C 
HETATM   12  C   UNL     1       7.021   0.750   0.000  1.00  0.00     0.051 C 
ENDROOT
TORSDOF 0
