REMARK  2 active torsions:
REMARK  status: ('A' for Active; 'I' for Inactive)
REMARK    1  A    between atoms: C_3  and  C_9 
REMARK    2  A    between atoms: C_9  and  C_11 
ROOT
HETATM    1  C   UNL     1      -3.522  -4.399   0.000  1.00  0.00     0.080 A 
HETATM    2  C   UNL     1      -4.821  -5.149   0.000  1.00  0.00     0.134 A 
HETATM    3  C   UNL     1      -2.223  -5.149   0.000  1.00  0.00    -0.013 A 
HETATM    4  C   UNL     1      -2.223  -6.649   0.000  1.00  0.00     0.031 A 
HETATM    5  C   UNL     1      -4.821  -6.649   0.000  1.00  0.00     0.130 A 
HETATM    6  C   UNL     1      -3.522  -7.399   0.000  1.00  0.00     0.060 A 
HETATM    7  O   UNL     1      -6.120  -4.399   0.000  1.00  0.00    -0.193 OA
HETATM    8  O   UNL     1      -6.120  -7.399   0.000  1.00  0.00    -0.193 OA
ENDROOT
BRANCH   3   9
HETATM    9  C   UNL     1      -0.924  -4.399   0.000  1.00  0.00     0.116 C 
HETATM   10  O   UNL     1       0.375  -5.149   0.000  1.00  0.00    -0.192 OA
BRANCH   9  11
HETATM   11  C   UNL     1      -0.924  -2.900   0.000  1.00  0.00    -0.019 C 
HETATM   12  C   UNL     1       0.375  -2.150   0.000  1.00  0.00     0.029 C 
HETATM   13  C   UNL     1      -2.223  -2.150   0.000  1.00  0.00     0.029 C 
ENDBRANCH   9  11
ENDBRANCH   3   9
TORSDOF 2
