REMARK  3 active torsions:
REMARK  status: ('A' for Active; 'I' for Inactive)
REMARK    1  A    between atoms: C_18  and  C_21 
REMARK    2  A    between atoms: C_19  and  C_20 
REMARK    3  A    between atoms: C_20  and  C_21 
ROOT
HETATM    1  H   UNL     1       5.685   3.584   0.000  1.00  0.00     0.170 HD
HETATM    2  O   UNL     1       5.685   0.584   0.000  1.00  0.00    -0.176 OA
HETATM    3  N   UNL     1       6.984   2.834   0.000  1.00  0.00    -0.315 N 
HETATM    4  C   UNL     1       6.984   1.334   0.000  1.00  0.00     0.175 A 
HETATM    5  C   UNL     1       8.283   3.584   0.000  1.00  0.00     0.190 A 
HETATM    6  O   UNL     1       8.283   5.084   0.000  1.00  0.00    -0.171 OA
HETATM    7  C   UNL     1       8.283   0.584   0.000  1.00  0.00     0.116 A 
HETATM    8  C   UNL     1       9.582   2.834   0.000  1.00  0.00     0.036 A 
HETATM    9  C   UNL     1       9.582   1.334   0.000  1.00  0.00     0.045 A 
HETATM   10  N   UNL     1      10.881   0.584   0.000  1.00  0.00    -0.324 N 
HETATM   11  C   UNL     1      10.881   3.584   0.000  1.00  0.00     0.055 A 
HETATM   12  C   UNL     1      12.180   1.334   0.000  1.00  0.00     0.075 A 
HETATM   13  C   UNL     1      12.180   2.834   0.000  1.00  0.00    -0.018 A 
HETATM   14  C   UNL     1      13.479   0.584   0.000  1.00  0.00     0.110 A 
HETATM   15  C   UNL     1      13.479   3.584   0.000  1.00  0.00     0.045 A 
HETATM   16  C   UNL     1      14.778   1.334   0.000  1.00  0.00    -0.005 A 
HETATM   17  C   UNL     1      14.778   2.834   0.000  1.00  0.00    -0.042 A 
HETATM   18  C   UNL     1      12.180  -1.666   0.000  1.00  0.00     0.128 A 
HETATM   19  C   UNL     1      10.881  -0.916   0.000  1.00  0.00     0.160 A 
HETATM   20  O   UNL     1      13.479  -0.916   0.000  1.00  0.00    -0.306 OA
HETATM   21  C   UNL     1      16.077   0.584   0.000  1.00  0.00     0.033 C 
HETATM   22  C   UNL     1      16.077   3.584   0.000  1.00  0.00     0.026 C 
ENDROOT
BRANCH  18  23
HETATM   23  C   UNL     1      12.180  -3.166   0.000  1.00  0.00     0.175 C 
HETATM   24  O   UNL     1      13.479  -3.916   0.000  1.00  0.00    -0.186 OA
BRANCH  23  25
HETATM   25  C   UNL     1      10.881  -3.916   0.000  1.00  0.00     0.169 C 
HETATM   26  O   UNL     1      10.881  -5.416   0.000  1.00  0.00    -0.190 OA
BRANCH  25  27
HETATM   27  C   UNL     1       9.582  -3.166   0.000  1.00  0.00     0.238 C 
HETATM   28  O   UNL     1       8.283  -3.916   0.000  1.00  0.00    -0.213 OA
ENDBRANCH  25  27
ENDBRANCH  23  25
ENDBRANCH  18  23
TORSDOF 3
