REMARK  5 active torsions:
REMARK  status: ('A' for Active; 'I' for Inactive)
REMARK    1  A    between atoms: O_1  and  C_3 
REMARK    2  A    between atoms: O_1  and  C_21 
REMARK       I    between atoms: C_3  and  N_23 
REMARK    3  A    between atoms: C_4  and  N_23 
REMARK    4  A    between atoms: C_12  and  S_13 
REMARK    5  A    between atoms: S_13  and  C_14 
ROOT
HETATM    1  C   UNL     1       2.895   5.486   0.000  1.00  0.00     0.046 A 
HETATM    2  C   UNL     1       2.895   6.986   0.000  1.00  0.00     0.048 A 
HETATM    3  C   UNL     1       4.194   4.736   0.000  1.00  0.00     0.075 A 
HETATM    4  C   UNL     1       4.194   7.736   0.000  1.00  0.00     0.052 A 
HETATM    5  C   UNL     1       5.493   5.486   0.000  1.00  0.00     0.024 A 
HETATM    6  C   UNL     1       5.493   6.986   0.000  1.00  0.00     0.058 A 
HETATM    7  N   UNL     1       6.920   7.450   0.000  1.00  0.00    -0.254 NA
HETATM    8  S   UNL     1       6.920   5.022   0.000  1.00  0.00    -0.082 SA
HETATM    9  C   UNL     1       7.801   6.236   0.000  1.00  0.00     0.202 A 
ENDROOT
BRANCH   9  10
HETATM   10  S   UNL     1       9.301   6.236   0.000  1.00  0.00    -0.107 SA
BRANCH  10  11
HETATM   11  C   UNL     1      10.051   7.535   0.000  1.00  0.00     0.051 A 
HETATM   12  C   UNL     1       9.301   8.834   0.000  1.00  0.00     0.016 A 
HETATM   13  C   UNL     1      10.051  10.133   0.000  1.00  0.00     0.034 A 
HETATM   14  C   UNL     1      11.551  10.133   0.000  1.00  0.00     0.013 A 
HETATM   15  C   UNL     1      12.301   8.834   0.000  1.00  0.00     0.034 A 
HETATM   16 CL   UNL     1      12.301  11.432   0.000  1.00  0.00    -0.092 Cl
HETATM   17  C   UNL     1      11.551   7.535   0.000  1.00  0.00     0.016 A 
ENDBRANCH  10  11
ENDBRANCH   9  10
BRANCH   1  18
HETATM   18  N   UNL     1       1.596   4.736   0.000  1.00  0.00    -0.207 NA
HETATM   19  C   UNL     1       0.297   5.486   0.000  1.00  0.00     0.318 C 
HETATM   20  O   UNL     1       0.297   6.986   0.000  1.00  0.00    -0.141 OA
BRANCH  19  21
HETATM   21  O   UNL     1      -1.002   4.736   0.000  1.00  0.00    -0.294 OA
BRANCH  21  22
HETATM   22  C   UNL     1      -2.301   5.486   0.000  1.00  0.00     0.153 C 
HETATM   23  C   UNL     1      -2.301   6.986   0.000  1.00  0.00     0.035 C 
ENDBRANCH  21  22
ENDBRANCH  19  21
ENDBRANCH   1  18
TORSDOF 5
