REMARK  4 active torsions:
REMARK  status: ('A' for Active; 'I' for Inactive)
REMARK    1  A    between atoms: C_8  and  S_11 
REMARK    2  A    between atoms: S_11  and  C_12 
REMARK    3  A    between atoms: C_12  and  C_13 
REMARK    4  A    between atoms: C_13  and  C_14 
ROOT
HETATM    1  N   UNL     1      -4.459  -4.941   0.000  1.00  0.00    -0.238 NA
HETATM    2  N   UNL     1      -3.160  -2.691   0.000  1.00  0.00    -0.227 NA
HETATM    3  H   UNL     1       0.029  -1.550   0.000  1.00  0.00     0.184 HD
HETATM    4  N   UNL     1      -0.434  -2.977   0.000  1.00  0.00    -0.286 N 
HETATM    5  N   UNL     1       0.447  -4.191   0.000  1.00  0.00    -0.119 NA
HETATM    6  C   UNL     1      -1.861  -3.441   0.000  1.00  0.00     0.148 A 
HETATM    7  C   UNL     1      -1.861  -4.941   0.000  1.00  0.00     0.055 A 
HETATM    8  C   UNL     1      -3.160  -5.691   0.000  1.00  0.00     0.104 A 
HETATM    9  C   UNL     1      -0.434  -5.404   0.000  1.00  0.00     0.145 A 
HETATM   10  C   UNL     1      -4.459  -3.441   0.000  1.00  0.00     0.253 A 
ENDROOT
BRANCH   8  11
HETATM   11  S   UNL     1      -3.160  -7.191   0.000  1.00  0.00    -0.095 SA
BRANCH  11  12
HETATM   12  C   UNL     1      -4.459  -7.941   0.000  1.00  0.00     0.064 C 
BRANCH  12  13
HETATM   13  C   UNL     1      -5.758  -7.191   0.000  1.00  0.00     0.012 C 
BRANCH  13  14
HETATM   14  C   UNL     1      -7.057  -7.941   0.000  1.00  0.00     0.001 C 
HETATM   15  C   UNL     1      -8.356  -7.191   0.000  1.00  0.00     0.000 C 
ENDBRANCH  13  14
ENDBRANCH  12  13
ENDBRANCH  11  12
ENDBRANCH   8  11
TORSDOF 4
