REMARK  3 active torsions:
REMARK  status: ('A' for Active; 'I' for Inactive)
REMARK    1  A    between atoms: C_6  and  O_8 
REMARK    2  A    between atoms: O_8  and  C_11 
REMARK       I    between atoms: C_11  and  N_12 
REMARK    3  A    between atoms: N_12  and  C_13 
ROOT
HETATM    1  C   UNL     1      -6.649   2.973   0.000  1.00  0.00     0.031 A 
HETATM    2  C   UNL     1      -8.149   2.973   0.000  1.00  0.00     0.100 A 
HETATM    3  C   UNL     1      -5.899   1.674   0.000  1.00  0.00     0.057 A 
HETATM    4  N   UNL     1      -8.899   1.674   0.000  1.00  0.00    -0.351 N 
HETATM    5  H   UNL     1     -10.399   1.674   0.000  1.00  0.00     0.162 HD
HETATM    6  C   UNL     1      -6.649   0.375   0.000  1.00  0.00     0.123 A 
HETATM    7  C   UNL     1      -8.149   0.375   0.000  1.00  0.00     0.206 A 
HETATM    8  O   UNL     1      -8.899  -0.924   0.000  1.00  0.00    -0.170 OA
ENDROOT
BRANCH   6   9
HETATM    9  O   UNL     1      -5.899  -0.924   0.000  1.00  0.00    -0.270 OA
BRANCH   9  10
HETATM   10  C   UNL     1      -4.399  -0.924   0.000  1.00  0.00     0.319 C 
HETATM   11  O   UNL     1      -3.650   0.375   0.000  1.00  0.00    -0.141 OA
HETATM   12  N   UNL     1      -3.650  -2.223   0.000  1.00  0.00    -0.225 NA
BRANCH  12  13
HETATM   13  C   UNL     1      -2.150  -2.223   0.000  1.00  0.00     0.130 C 
HETATM   14  C   UNL     1      -1.399  -0.924   0.000  1.00  0.00     0.029 C 
ENDBRANCH  12  13
ENDBRANCH   9  10
ENDBRANCH   6   9
TORSDOF 3
