REMARK  0 active torsions:
REMARK  status: ('A' for Active; 'I' for Inactive)
ROOT
HETATM    1  O   UNL     1       2.049   5.250   0.000  1.00  0.00    -0.330 OA
HETATM    2  O   UNL     1       2.049   2.250   0.000  1.00  0.00    -0.330 OA
HETATM    3  C   UNL     1       3.348   4.500   0.000  1.00  0.00     0.094 A 
HETATM    4  C   UNL     1       3.348   3.000   0.000  1.00  0.00     0.095 A 
HETATM    5  C   UNL     1       4.647   2.250   0.000  1.00  0.00     0.082 A 
HETATM    6  C   UNL     1       4.647   5.250   0.000  1.00  0.00     0.079 A 
HETATM    7  C   UNL     1       5.946   4.500   0.000  1.00  0.00    -0.018 A 
HETATM    8  C   UNL     1       5.946   3.000   0.000  1.00  0.00     0.023 A 
HETATM    9  C   UNL     1       7.245   5.250   0.000  1.00  0.00    -0.011 A 
HETATM   10  C   UNL     1       7.245   6.750   0.000  1.00  0.00     0.028 A 
HETATM   11  C   UNL     1       7.245   2.250   0.000  1.00  0.00     0.190 A 
HETATM   12  O   UNL     1       7.245   0.750   0.000  1.00  0.00    -0.171 OA
HETATM   13  N   UNL     1       8.544   3.000   0.000  1.00  0.00    -0.308 N 
HETATM   14  C   UNL     1       8.544   7.500   0.000  1.00  0.00     0.009 A 
HETATM   15  C   UNL     1       8.544   4.500   0.000  1.00  0.00     0.049 A 
HETATM   16  C   UNL     1       9.843   5.250   0.000  1.00  0.00    -0.027 A 
HETATM   17  C   UNL     1       9.843   6.750   0.000  1.00  0.00     0.024 A 
HETATM   18  C   UNL     1      10.904   4.189   0.000  1.00  0.00     0.048 A 
HETATM   19  C   UNL     1      10.154   2.890   0.000  1.00  0.00     0.112 A 
HETATM   20  C   UNL     1       0.750   4.500   0.000  1.00  0.00     0.181 A 
HETATM   21  C   UNL     1       0.750   3.000   0.000  1.00  0.00     0.181 A 
ENDROOT
TORSDOF 0
