REMARK  7 active torsions:
REMARK  status: ('A' for Active; 'I' for Inactive)
REMARK    1  A    between atoms: C_2  and  N_18 
REMARK    2  A    between atoms: C_5  and  C_22 
REMARK    3  A    between atoms: C_6  and  C_22 
REMARK    4  A    between atoms: C_14  and  O_16 
REMARK    5  A    between atoms: O_16  and  C_23 
REMARK    6  A    between atoms: N_17  and  C_24 
REMARK    7  A    between atoms: C_23  and  C_24 
ROOT
HETATM    1  S   UNL     2      13.507   3.844   0.000  1.00  0.00     0.261 S 
HETATM    2  O   UNL     2      14.999   3.687   0.000  1.00  0.00    -0.565 OA
HETATM    3  O   UNL     2      13.664   5.336   0.000  1.00  0.00    -0.565 OA
HETATM    4  O   UNL     2      12.015   4.001   0.000  1.00  0.00    -0.565 OA
HETATM    5  O   UNL     2      13.350   2.352   0.000  1.00  0.00    -0.565 OA
ENDROOT
TORSDOF 7
