REMARK  2 active torsions:
REMARK  status: ('A' for Active; 'I' for Inactive)
REMARK    1  A    between atoms: C_8  and  N_17 
REMARK    2  A    between atoms: C_15  and  N_17 
ROOT
HETATM    1  O   UNL     1      -2.973  -6.649   0.000  1.00  0.00    -0.166 OA
HETATM    2  O   UNL     1      -0.375  -8.149   0.000  1.00  0.00    -0.270 OA
HETATM    3  C   UNL     1      -2.973  -8.149   0.000  1.00  0.00     0.227 A 
HETATM    4  C   UNL     1      -1.674  -8.899   0.000  1.00  0.00     0.124 A 
HETATM    5  C   UNL     1      -1.674 -10.399   0.000  1.00  0.00     0.058 A 
HETATM    6  C   UNL     1      -2.973 -11.149   0.000  1.00  0.00     0.033 A 
HETATM    7  C   UNL     1      -4.272 -10.399   0.000  1.00  0.00     0.128 A 
HETATM    8  N   UNL     1      -4.272  -8.899   0.000  1.00  0.00    -0.245 NA
HETATM    9  C   UNL     1      -0.375  -6.649   0.000  1.00  0.00     0.322 A 
HETATM   10  O   UNL     1      -1.674  -5.899   0.000  1.00  0.00    -0.143 OA
ENDROOT
BRANCH   9  11
HETATM   11  N   UNL     1       0.924  -5.899   0.000  1.00  0.00    -0.207 NA
BRANCH  11  12
HETATM   12  C   UNL     1       0.924  -4.399   0.000  1.00  0.00     0.041 A 
HETATM   13  C   UNL     1      -0.375  -3.650   0.000  1.00  0.00     0.042 A 
HETATM   14  C   UNL     1      -0.375  -2.150   0.000  1.00  0.00     0.006 A 
HETATM   15  C   UNL     1       0.924  -1.399   0.000  1.00  0.00     0.001 A 
HETATM   16  C   UNL     1       2.223  -2.150   0.000  1.00  0.00     0.006 A 
HETATM   17  C   UNL     1       2.223  -3.650   0.000  1.00  0.00     0.042 A 
ENDBRANCH  11  12
ENDBRANCH   9  11
TORSDOF 2
