REMARK  4 active torsions:
REMARK  status: ('A' for Active; 'I' for Inactive)
REMARK    1  A    between atoms: S_2  and  C_5 
REMARK    2  A    between atoms: S_2  and  C_15 
REMARK    3  A    between atoms: C_10  and  S_11 
REMARK    4  A    between atoms: S_11  and  C_19 
ROOT
HETATM    1  O   UNL     1       4.272  -1.601   0.000  1.00  0.00    -0.169 OA
HETATM    2  C   UNL     1       5.571   0.649   0.000  1.00  0.00     0.189 A 
HETATM    3  C   UNL     1       5.571  -0.851   0.000  1.00  0.00     0.222 A 
HETATM    4  N   UNL     1       6.870   1.399   0.000  1.00  0.00    -0.291 N 
HETATM    5  N   UNL     1       6.870  -1.601   0.000  1.00  0.00    -0.291 N 
HETATM    6  C   UNL     1       8.169   0.649   0.000  1.00  0.00     0.222 A 
HETATM    7  C   UNL     1       8.169  -0.851   0.000  1.00  0.00     0.189 A 
HETATM    8  O   UNL     1       9.468   1.399   0.000  1.00  0.00    -0.169 OA
HETATM    9  C   UNL     1       6.870   2.900   0.000  1.00  0.00     0.133 C 
HETATM   10  C   UNL     1       6.870  -3.100   0.000  1.00  0.00     0.133 C 
ENDROOT
BRANCH   2  11
HETATM   11  S   UNL     1       4.272   1.399   0.000  1.00  0.00     0.208 S 
HETATM   12  O   UNL     1       5.022   2.699   0.000  1.00  0.00    -0.220 OA
HETATM   13  O   UNL     1       3.522   0.101   0.000  1.00  0.00    -0.220 OA
BRANCH  11  14
HETATM   14  C   UNL     1       2.973   2.150   0.000  1.00  0.00     0.129 C 
HETATM   15  C   UNL     1       2.973   3.650   0.000  1.00  0.00     0.018 C 
ENDBRANCH  11  14
ENDBRANCH   2  11
BRANCH   7  16
HETATM   16  S   UNL     1       9.468  -1.601   0.000  1.00  0.00     0.208 S 
HETATM   17  O   UNL     1      10.218  -0.301   0.000  1.00  0.00    -0.220 OA
HETATM   18  O   UNL     1       8.718  -2.900   0.000  1.00  0.00    -0.220 OA
BRANCH  16  19
HETATM   19  C   UNL     1      10.767  -2.350   0.000  1.00  0.00     0.129 C 
HETATM   20  C   UNL     1      12.066  -1.601   0.000  1.00  0.00     0.018 C 
ENDBRANCH  16  19
ENDBRANCH   7  16
TORSDOF 4
