REMARK  1 active torsions:
REMARK  status: ('A' for Active; 'I' for Inactive)
REMARK    1  A    between atoms: C_4  and  C_12 
ROOT
HETATM    1  C   UNL     1      -4.463   5.508   0.000  1.00  0.00     0.109 A 
HETATM    2  C   UNL     1      -4.463   7.008   0.000  1.00  0.00     0.025 A 
HETATM    3  N   UNL     1      -3.164   4.758   0.000  1.00  0.00    -0.298 N 
HETATM    4  C   UNL     1      -2.852   3.291   0.000  1.00  0.00     0.188 A 
HETATM    5  C   UNL     1      -3.164   7.758   0.000  1.00  0.00     0.009 A 
HETATM    6  C   UNL     1      -1.865   7.008   0.000  1.00  0.00     0.066 A 
HETATM    7  C   UNL     1      -1.865   5.508   0.000  1.00  0.00     0.143 A 
HETATM    8  N   UNL     1      -0.750   4.505   0.000  1.00  0.00    -0.133 NA
HETATM    9  N   UNL     1      -1.360   3.135   0.000  1.00  0.00    -0.127 NA
HETATM   10  C   UNL     1      -3.164   9.258   0.000  1.00  0.00     0.001 C 
ENDROOT
BRANCH   4  11
HETATM   11  C   UNL     1      -3.856   2.177   0.000  1.00  0.00     0.145 C 
HETATM   12  C   UNL     1      -3.392   0.750   0.000  1.00  0.00     0.065 C 
HETATM   13  O   UNL     1      -5.323   2.488   0.000  1.00  0.00    -0.192 OA
ENDBRANCH   4  11
TORSDOF 1
