REMARK  0 active torsions:
REMARK  status: ('A' for Active; 'I' for Inactive)
ROOT
HETATM    1  C   UNL     1       3.348   4.500   0.000  1.00  0.00     0.048 A 
HETATM    2  C   UNL     1       3.348   3.000   0.000  1.00  0.00     0.039 A 
HETATM    3  C   UNL     1       4.647   5.250   0.000  1.00  0.00     0.056 A 
HETATM    4  N   UNL     1       4.647   2.250   0.000  1.00  0.00    -0.359 N 
HETATM    5  H   UNL     1       4.647   0.750   0.000  1.00  0.00     0.165 HD
HETATM    6  C   UNL     1       5.946   3.000   0.000  1.00  0.00     0.039 A 
HETATM    7  C   UNL     1       5.946   4.500   0.000  1.00  0.00     0.048 A 
HETATM    8  C   UNL     1       2.049   5.250   0.000  1.00  0.00     0.018 C 
HETATM    9  N   UNL     1       0.750   6.000   0.000  1.00  0.00    -0.096 N 
HETATM   10  C   UNL     1       2.049   2.250   0.000  1.00  0.00     0.050 C 
HETATM   11  C   UNL     1       3.683   6.399   0.000  1.00  0.00     0.010 C 
HETATM   12  C   UNL     1       5.611   6.399   0.000  1.00  0.00     0.010 C 
HETATM   13  C   UNL     1       7.245   5.250   0.000  1.00  0.00     0.018 C 
HETATM   14  N   UNL     1       8.544   6.000   0.000  1.00  0.00    -0.096 N 
HETATM   15  C   UNL     1       7.245   2.250   0.000  1.00  0.00     0.050 C 
ENDROOT
TORSDOF 0
