REMARK  3 active torsions:
REMARK  status: ('A' for Active; 'I' for Inactive)
REMARK    1  A    between atoms: C_12  and  C_13 
REMARK    2  A    between atoms: C_13  and  C_14 
REMARK    3  A    between atoms: C_14  and  C_15 
ROOT
HETATM    1  C   UNL     1      -5.400  -6.984   0.000  1.00  0.00     0.033 A 
HETATM    2  C   UNL     1      -5.400  -8.484   0.000  1.00  0.00     0.038 A 
HETATM    3  C   UNL     1      -4.101  -4.734   0.000  1.00  0.00     0.155 A 
HETATM    4  C   UNL     1      -4.101  -6.234   0.000  1.00  0.00     0.024 A 
HETATM    5  O   UNL     1      -5.400  -3.984   0.000  1.00  0.00    -0.188 OA
HETATM    6  C   UNL     1      -4.101  -9.234   0.000  1.00  0.00     0.159 A 
HETATM    7  C   UNL     1      -2.802  -3.984   0.000  1.00  0.00     0.174 A 
HETATM    8  C   UNL     1      -2.802  -6.984   0.000  1.00  0.00     0.078 A 
HETATM    9  O   UNL     1      -2.802  -2.484   0.000  1.00  0.00    -0.186 OA
HETATM   10  C   UNL     1      -2.802  -8.484   0.000  1.00  0.00     0.084 A 
HETATM   11  O   UNL     1      -4.101 -10.734   0.000  1.00  0.00    -0.223 OA
HETATM   12  C   UNL     1      -1.503  -4.734   0.000  1.00  0.00     0.104 A 
HETATM   13  O   UNL     1      -1.503  -6.234   0.000  1.00  0.00    -0.314 OA
ENDROOT
BRANCH  12  14
HETATM   14  C   UNL     1      -0.204  -3.984   0.000  1.00  0.00     0.054 C 
BRANCH  14  15
HETATM   15  C   UNL     1       1.095  -4.734   0.000  1.00  0.00     0.007 C 
BRANCH  15  16
HETATM   16  C   UNL     1       1.095  -6.234   0.000  1.00  0.00     0.000 C 
HETATM   17  C   UNL     1       2.394  -6.984   0.000  1.00  0.00     0.000 C 
ENDBRANCH  15  16
ENDBRANCH  14  15
ENDBRANCH  12  14
TORSDOF 3
