REMARK  2 active torsions:
REMARK  status: ('A' for Active; 'I' for Inactive)
REMARK    1  A    between atoms: C_4  and  C_21 
REMARK    2  A    between atoms: C_15  and  C_29 
ROOT
HETATM    1  O   UNL     1       4.922   2.525   0.000  1.00  0.00    -0.303 OA
HETATM    2  C   UNL     1       6.221   1.774   0.000  1.00  0.00     0.103 A 
HETATM    3  C   UNL     1       6.221   0.275   0.000  1.00  0.00     0.060 A 
HETATM    4  C   UNL     1       7.520   2.525   0.000  1.00  0.00     0.062 A 
HETATM    5  C   UNL     1       7.520  -0.475   0.000  1.00  0.00     0.085 A 
HETATM    6  O   UNL     1       7.520  -1.976   0.000  1.00  0.00    -0.309 OA
HETATM    7  C   UNL     1       8.819   0.275   0.000  1.00  0.00     0.112 A 
HETATM    8  C   UNL     1       8.819   1.774   0.000  1.00  0.00     0.083 A 
HETATM    9  O   UNL     1      10.245   2.238   0.000  1.00  0.00    -0.336 OA
HETATM   10  C   UNL     1      11.127   1.024   0.000  1.00  0.00     0.133 A 
HETATM   11  C   UNL     1      10.245  -0.189   0.000  1.00  0.00     0.094 A 
HETATM   12  C   UNL     1      12.619   0.868   0.000  1.00  0.00     0.084 A 
HETATM   13  C   UNL     1      10.855  -1.559   0.000  1.00  0.00     0.143 A 
HETATM   14  C   UNL     1      13.229  -0.503   0.000  1.00  0.00     0.111 A 
HETATM   15  C   UNL     1      12.347  -1.716   0.000  1.00  0.00     0.047 A 
HETATM   16  O   UNL     1      14.721  -0.659   0.000  1.00  0.00    -0.195 OA
HETATM   17  C   UNL     1       3.623   1.774   0.000  1.00  0.00     0.280 A 
HETATM   18  O   UNL     1       2.324   2.525   0.000  1.00  0.00    -0.189 OA
HETATM   19  C   UNL     1       3.623   0.275   0.000  1.00  0.00     0.116 A 
HETATM   20  C   UNL     1       4.922  -0.475   0.000  1.00  0.00     0.083 A 
HETATM   21  C   UNL     1       6.221  -2.725   0.000  1.00  0.00     0.244 A 
HETATM   22  O   UNL     1       4.922  -1.976   0.000  1.00  0.00    -0.309 OA
HETATM   23  C   UNL     1       6.221  -4.226   0.000  1.00  0.00     0.067 C 
HETATM   24  C   UNL     1       9.242  -1.304   0.000  1.00  0.00     0.136 A 
HETATM   25  O   UNL     1       9.974  -2.773   0.000  1.00  0.00    -0.353 OA
ENDROOT
BRANCH   4  26
HETATM   26  C   UNL     1       7.520   4.024   0.000  1.00  0.00     0.112 C 
HETATM   27  O   UNL     1       6.221   4.774   0.000  1.00  0.00    -0.195 OA
HETATM   28  C   UNL     1       8.819   4.774   0.000  1.00  0.00     0.061 C 
ENDBRANCH   4  26
BRANCH  15  29
HETATM   29  C   UNL     1      12.957  -3.086   0.000  1.00  0.00     0.109 C 
HETATM   30  O   UNL     1      14.449  -3.243   0.000  1.00  0.00    -0.195 OA
HETATM   31  C   UNL     1      12.076  -4.300   0.000  1.00  0.00     0.061 C 
ENDBRANCH  15  29
TORSDOF 2
