REMARK  0 active torsions:
REMARK  status: ('A' for Active; 'I' for Inactive)
ROOT
HETATM    1  N   UNL     1      -0.446  -5.624   0.000  1.00  0.00    -0.399 N 
HETATM    2  H   UNL     1      -0.446  -7.124   0.000  1.00  0.00     0.154 HD
HETATM    3  N   UNL     1      -0.446  -2.624   0.000  1.00  0.00    -0.399 N 
HETATM    4  H   UNL     1      -0.446  -1.124   0.000  1.00  0.00     0.154 HD
HETATM    5  C   UNL     1      -3.044  -2.624   0.000  1.00  0.00     0.014 A 
HETATM    6  C   UNL     1      -4.343  -3.374   0.000  1.00  0.00    -0.004 A 
HETATM    7  C   UNL     1      -1.745  -3.374   0.000  1.00  0.00     0.111 A 
HETATM    8  C   UNL     1      -1.745  -4.874   0.000  1.00  0.00     0.111 A 
HETATM    9  C   UNL     1      -4.343  -4.874   0.000  1.00  0.00     0.020 A 
HETATM   10  C   UNL     1      -3.044  -5.624   0.000  1.00  0.00     0.009 A 
HETATM   11  C   UNL     1       0.853  -3.374   0.000  1.00  0.00     0.117 A 
HETATM   12  C   UNL     1       0.853  -4.874   0.000  1.00  0.00     0.117 A 
HETATM   13  C   UNL     1      -5.821  -4.613   0.000  1.00  0.00    -0.006 C 
ENDROOT
TORSDOF 0
