REMARK  3 active torsions:
REMARK  status: ('A' for Active; 'I' for Inactive)
REMARK    1  A    between atoms: C_9  and  C_10 
REMARK    2  A    between atoms: C_10  and  O_12 
REMARK    3  A    between atoms: O_12  and  C_16 
ROOT
HETATM    1  C   UNL     1      -6.304  -6.123   0.000  1.00  0.00     0.005 A 
HETATM    2  C   UNL     1      -6.304  -7.623   0.000  1.00  0.00     0.005 A 
HETATM    3  C   UNL     1      -5.005  -5.373   0.000  1.00  0.00     0.027 A 
HETATM    4  C   UNL     1      -5.005  -8.373   0.000  1.00  0.00     0.032 A 
HETATM    5  C   UNL     1      -3.706  -6.123   0.000  1.00  0.00    -0.015 A 
HETATM    6  C   UNL     1      -3.706  -7.623   0.000  1.00  0.00     0.001 A 
HETATM    7  S   UNL     1      -2.280  -8.086   0.000  1.00  0.00    -0.079 SA
HETATM    8  C   UNL     1      -1.398  -6.873   0.000  1.00  0.00     0.113 A 
HETATM    9  C   UNL     1      -2.280  -5.659   0.000  1.00  0.00     0.069 A 
HETATM   10  S   UNL     1       2.352  -8.172   0.000  1.00  0.00    -0.037 SA
HETATM   11  C   UNL     1       0.852  -8.172   0.000  1.00  0.00     0.222 A 
HETATM   12  N   UNL     1       0.102  -6.873   0.000  1.00  0.00    -0.211 NA
HETATM   13  N   UNL     1       0.102  -9.471   0.000  1.00  0.00    -0.209 NA
HETATM   14  C   UNL     1      -1.398  -9.471   0.000  1.00  0.00     0.133 A 
ENDROOT
BRANCH   9  15
HETATM   15  C   UNL     1      -1.816  -4.233   0.000  1.00  0.00     0.230 C 
HETATM   16  O   UNL     1      -2.820  -3.118   0.000  1.00  0.00    -0.163 OA
BRANCH  15  17
HETATM   17  O   UNL     1      -0.349  -3.921   0.000  1.00  0.00    -0.309 OA
BRANCH  17  18
HETATM   18  C   UNL     1       0.115  -2.494   0.000  1.00  0.00     0.151 C 
HETATM   19  C   UNL     1      -0.889  -1.379   0.000  1.00  0.00     0.035 C 
ENDBRANCH  17  18
ENDBRANCH  15  17
ENDBRANCH   9  15
TORSDOF 3
