REMARK  0 active torsions:
REMARK  status: ('A' for Active; 'I' for Inactive)
ROOT
HETATM    1  C   UNL     1      -2.873  -4.024   0.000  1.00  0.00     0.081 A 
HETATM    2  C   UNL     1      -2.873  -5.524   0.000  1.00  0.00     0.004 A 
HETATM    3  C   UNL     1      -1.574  -3.275   0.000  1.00  0.00     0.105 A 
HETATM    4  C   UNL     1      -0.275  -4.024   0.000  1.00  0.00    -0.016 A 
HETATM    5  C   UNL     1      -1.574  -6.274   0.000  1.00  0.00     0.109 A 
HETATM    6  C   UNL     1      -4.172  -6.274   0.000  1.00  0.00     0.004 A 
HETATM    7  C   UNL     1      -5.471  -5.524   0.000  1.00  0.00     0.081 A 
HETATM    8  C   UNL     1      -6.770  -6.274   0.000  1.00  0.00     0.105 A 
HETATM    9  C   UNL     1      -4.172  -7.774   0.000  1.00  0.00     0.109 A 
HETATM   10  C   UNL     1      -6.770  -7.774   0.000  1.00  0.00    -0.016 A 
HETATM   11  C   UNL     1      -0.275  -5.524   0.000  1.00  0.00     0.078 A 
HETATM   12  C   UNL     1      -5.471  -8.524   0.000  1.00  0.00     0.078 A 
HETATM   13  O   UNL     1      -8.069  -5.524   0.000  1.00  0.00    -0.195 OA
HETATM   14  O   UNL     1      -2.873  -8.524   0.000  1.00  0.00    -0.195 OA
HETATM   15  O   UNL     1      -1.574  -1.774   0.000  1.00  0.00    -0.195 OA
HETATM   16  C   UNL     1       1.024  -3.275   0.000  1.00  0.00     0.029 C 
HETATM   17  O   UNL     1      -1.574  -7.774   0.000  1.00  0.00    -0.195 OA
HETATM   18  C   UNL     1      -8.069  -8.524   0.000  1.00  0.00     0.029 C 
ENDROOT
TORSDOF 0
