REMARK  1 active torsions:
REMARK  status: ('A' for Active; 'I' for Inactive)
REMARK    1  A    between atoms: C_14  and  O_16 
ROOT
HETATM    1  O   UNL     1       0.286  -7.112   0.000  1.00  0.00    -0.335 OA
HETATM    2  C   UNL     1      -1.013  -4.862   0.000  1.00  0.00     0.099 A 
HETATM    3  C   UNL     1      -2.312  -4.112   0.000  1.00  0.00     0.045 A 
HETATM    4  C   UNL     1      -3.611  -4.862   0.000  1.00  0.00     0.029 A 
HETATM    5  C   UNL     1      -1.013  -6.362   0.000  1.00  0.00     0.072 A 
HETATM    6  C   UNL     1      -3.611  -6.362   0.000  1.00  0.00    -0.028 A 
HETATM    7  C   UNL     1      -2.312  -7.112   0.000  1.00  0.00    -0.002 A 
HETATM    8  C   UNL     1      -4.910  -7.112   0.000  1.00  0.00    -0.029 A 
HETATM    9  C   UNL     1      -6.209  -6.362   0.000  1.00  0.00     0.026 A 
HETATM   10  C   UNL     1      -7.508  -7.112   0.000  1.00  0.00     0.005 A 
HETATM   11  C   UNL     1      -2.312  -8.612   0.000  1.00  0.00     0.078 A 
HETATM   12  C   UNL     1      -4.910  -8.612   0.000  1.00  0.00    -0.008 A 
HETATM   13  C   UNL     1      -7.508  -8.612   0.000  1.00  0.00     0.005 A 
HETATM   14  C   UNL     1      -3.611  -9.362   0.000  1.00  0.00     0.072 A 
HETATM   15  C   UNL     1      -6.209  -9.362   0.000  1.00  0.00     0.028 A 
HETATM   16  C   UNL     1      -0.500  -3.453   0.000  1.00  0.00     0.275 A 
HETATM   17  O   UNL     1       0.977  -3.192   0.000  1.00  0.00    -0.190 OA
HETATM   18  O   UNL     1      -1.464  -2.304   0.000  1.00  0.00    -0.329 OA
HETATM   19  C   UNL     1      -2.942  -2.564   0.000  1.00  0.00     0.146 A 
HETATM   20  C   UNL     1       0.464  -5.123   0.000  1.00  0.00     0.044 A 
HETATM   21  C   UNL     1       0.977  -6.532   0.000  1.00  0.00     0.149 A 
ENDROOT
BRANCH  14  22
HETATM   22  O   UNL     1      -3.611 -10.862   0.000  1.00  0.00    -0.332 OA
HETATM   23  C   UNL     1      -4.910 -11.612   0.000  1.00  0.00     0.181 C 
ENDBRANCH  14  22
TORSDOF 1
