REMARK  4 active torsions:
REMARK  status: ('A' for Active; 'I' for Inactive)
REMARK    1  A    between atoms: O_1  and  C_3 
REMARK    2  A    between atoms: O_1  and  C_20 
REMARK       I    between atoms: C_3  and  N_22 
REMARK    3  A    between atoms: C_5  and  N_22 
REMARK    4  A    between atoms: C_11  and  N_13 
ROOT
HETATM    1  C   UNL     1       5.946   3.185   0.000  1.00  0.00     0.048 A 
HETATM    2  C   UNL     1       5.946   1.685   0.000  1.00  0.00     0.046 A 
HETATM    3  C   UNL     1       7.245   3.935   0.000  1.00  0.00     0.052 A 
HETATM    4  C   UNL     1       7.245   0.935   0.000  1.00  0.00     0.076 A 
HETATM    5  C   UNL     1       8.544   1.685   0.000  1.00  0.00     0.029 A 
HETATM    6  C   UNL     1       8.544   3.185   0.000  1.00  0.00     0.064 A 
HETATM    7  N   UNL     1       9.971   3.649   0.000  1.00  0.00    -0.226 NA
HETATM    8  C   UNL     1      10.852   2.435   0.000  1.00  0.00     0.179 A 
HETATM    9  S   UNL     1       9.971   1.222   0.000  1.00  0.00    -0.053 SA
ENDROOT
BRANCH   8  10
HETATM   10  N   UNL     1      12.352   2.435   0.000  1.00  0.00    -0.284 N 
HETATM   11  C   UNL     1      13.003   3.787   0.000  1.00  0.00     0.082 A 
HETATM   12  C   UNL     1      14.466   4.120   0.000  1.00  0.00     0.019 A 
HETATM   13  C   UNL     1      15.639   3.185   0.000  1.00  0.00     0.002 A 
HETATM   14  C   UNL     1      15.639   1.685   0.000  1.00  0.00     0.002 A 
HETATM   15  C   UNL     1      14.466   0.750   0.000  1.00  0.00     0.019 A 
HETATM   16  C   UNL     1      13.003   1.084   0.000  1.00  0.00     0.082 A 
ENDBRANCH   8  10
BRANCH   2  17
HETATM   17  N   UNL     1       4.647   0.935   0.000  1.00  0.00    -0.207 NA
HETATM   18  C   UNL     1       3.348   1.685   0.000  1.00  0.00     0.318 C 
HETATM   19  O   UNL     1       3.348   3.185   0.000  1.00  0.00    -0.141 OA
BRANCH  18  20
HETATM   20  O   UNL     1       2.049   0.935   0.000  1.00  0.00    -0.294 OA
BRANCH  20  21
HETATM   21  C   UNL     1       0.750   1.685   0.000  1.00  0.00     0.153 C 
HETATM   22  C   UNL     1       0.750   3.185   0.000  1.00  0.00     0.035 C 
ENDBRANCH  20  21
ENDBRANCH  18  20
ENDBRANCH   2  17
TORSDOF 4
