REMARK  3 active torsions:
REMARK  status: ('A' for Active; 'I' for Inactive)
REMARK    1  A    between atoms: N_3  and  C_15 
REMARK    2  A    between atoms: C_9  and  C_11 
REMARK    3  A    between atoms: C_15  and  C_16 
ROOT
HETATM    1  N   UNL     1      -4.311   9.281   0.000  1.00  0.00     0.007 NA
HETATM    2  N   UNL     1      -3.430  10.494   0.000  1.00  0.00    -0.158 NA
HETATM    3  N   UNL     1      -3.430   8.067   0.000  1.00  0.00    -0.239 N 
HETATM    4  C   UNL     1      -2.003   8.531   0.000  1.00  0.00     0.175 A 
HETATM    5  C   UNL     1      -2.003  10.031   0.000  1.00  0.00     0.133 A 
HETATM    6  C   UNL     1      -0.704  10.781   0.000  1.00  0.00     0.150 A 
HETATM    7  N   UNL     1      -0.704   7.781   0.000  1.00  0.00    -0.210 NA
HETATM    8  N   UNL     1       0.595  10.031   0.000  1.00  0.00    -0.354 N 
HETATM    9  C   UNL     1       0.595   8.531   0.000  1.00  0.00     0.158 A 
HETATM   10  H   UNL     1       1.894  10.781   0.000  1.00  0.00     0.162 HD
ENDROOT
BRANCH   3  11
HETATM   11  C   UNL     1      -3.893   6.641   0.000  1.00  0.00     0.125 C 
BRANCH  11  12
HETATM   12  C   UNL     1      -2.889   5.526   0.000  1.00  0.00     0.024 A 
HETATM   13  C   UNL     1      -1.422   5.838   0.000  1.00  0.00     0.002 A 
HETATM   14  C   UNL     1      -0.418   4.723   0.000  1.00  0.00     0.000 A 
HETATM   15  C   UNL     1      -0.882   3.296   0.000  1.00  0.00     0.000 A 
HETATM   16  C   UNL     1      -2.349   2.985   0.000  1.00  0.00     0.000 A 
HETATM   17  C   UNL     1      -3.353   4.099   0.000  1.00  0.00     0.002 A 
ENDBRANCH  11  12
ENDBRANCH   3  11
BRANCH   9  18
HETATM   18  C   UNL     1       1.894   7.781   0.000  1.00  0.00     0.248 A 
HETATM   19 CL   UNL     1       3.193   8.531   0.000  1.00  0.00    -0.075 Cl
HETATM   20 CL   UNL     1       3.193   7.031   0.000  1.00  0.00    -0.075 Cl
HETATM   21 CL   UNL     1       1.894   6.281   0.000  1.00  0.00    -0.075 Cl
ENDBRANCH   9  18
TORSDOF 3
