REMARK  2 active torsions:
REMARK  status: ('A' for Active; 'I' for Inactive)
REMARK    1  A    between atoms: C_5  and  C_11 
REMARK    2  A    between atoms: C_10  and  C_11 
REMARK       I    between atoms: C_10  and  N_12 
ROOT
HETATM    1  H   UNL     1      -0.676   1.753   0.000  1.00  0.00     0.186 HD
HETATM    2  H   UNL     1      -3.582   0.269   0.000  1.00  0.00     0.189 HD
HETATM    3  N   UNL     1      -0.909   0.271   0.000  1.00  0.00    -0.304 N 
HETATM    4  N   UNL     1      -2.245  -0.411   0.000  1.00  0.00    -0.280 N 
HETATM    5  C   UNL     1       0.152  -0.788   0.000  1.00  0.00     0.044 A 
HETATM    6  C   UNL     1      -2.010  -1.892   0.000  1.00  0.00     0.187 A 
HETATM    7  O   UNL     1      -3.069  -2.954   0.000  1.00  0.00    -0.174 OA
HETATM    8  C   UNL     1      -0.528  -2.126   0.000  1.00  0.00     0.115 A 
ENDROOT
BRANCH   5   9
HETATM    9  C   UNL     1       1.633  -0.553   0.000  1.00  0.00     0.117 C 
BRANCH   9  10
HETATM   10  C   UNL     1       2.170   0.848   0.000  1.00  0.00     0.217 C 
HETATM   11  O   UNL     1       1.225   2.013   0.000  1.00  0.00    -0.172 OA
HETATM   12  N   UNL     1       3.651   1.084   0.000  1.00  0.00    -0.104 NA
HETATM   13  N   UNL     1       4.188   2.485   0.000  1.00  0.00    -0.021 N 
ENDBRANCH   9  10
ENDBRANCH   5   9
TORSDOF 2
