REMARK  6 active torsions:
REMARK  status: ('A' for Active; 'I' for Inactive)
REMARK    1  A    between atoms: O_1  and  C_2 
REMARK    2  A    between atoms: O_1  and  C_19 
REMARK    3  A    between atoms: C_7  and  C_8 
REMARK    4  A    between atoms: C_12  and  C_13 
REMARK    5  A    between atoms: C_18  and  N_22 
REMARK    6  A    between atoms: C_19  and  C_20 
ROOT
HETATM    1  C   UNL     1       7.272  -2.751   0.000  1.00  0.00     0.099 A 
HETATM    2  S   UNL     1       7.272  -4.251   0.000  1.00  0.00    -0.089 SA
HETATM    3  N   UNL     1       8.699  -2.287   0.000  1.00  0.00    -0.244 NA
HETATM    4  C   UNL     1       8.699  -4.714   0.000  1.00  0.00     0.108 A 
HETATM    5  C   UNL     1       9.580  -3.501   0.000  1.00  0.00     0.063 A 
ENDROOT
BRANCH   1   6
HETATM    6  C   UNL     1       6.059  -1.869   0.000  1.00  0.00    -0.021 A 
HETATM    7  C   UNL     1       6.215  -0.377   0.000  1.00  0.00     0.026 A 
HETATM    8  C   UNL     1       5.002   0.504   0.000  1.00  0.00     0.034 A 
HETATM    9  C   UNL     1       3.631  -0.106   0.000  1.00  0.00     0.116 A 
HETATM   10  C   UNL     1       3.475  -1.597   0.000  1.00  0.00     0.034 A 
HETATM   11  C   UNL     1       4.688  -2.479   0.000  1.00  0.00     0.026 A 
BRANCH   9  12
HETATM   12  O   UNL     1       2.418   0.776   0.000  1.00  0.00    -0.357 OA
BRANCH  12  13
HETATM   13  C   UNL     1       2.575   2.268   0.000  1.00  0.00     0.142 C 
BRANCH  13  14
HETATM   14  C   UNL     1       3.945   2.878   0.000  1.00  0.00     0.032 C 
HETATM   15  C   UNL     1       4.102   4.370   0.000  1.00  0.00     0.003 C 
ENDBRANCH  13  14
ENDBRANCH  12  13
ENDBRANCH   9  12
ENDBRANCH   1   6
BRANCH   5  16
HETATM   16  C   UNL     1      11.080  -3.501   0.000  1.00  0.00    -0.029 A 
HETATM   17  C   UNL     1      11.830  -2.202   0.000  1.00  0.00     0.029 A 
HETATM   18  C   UNL     1      13.330  -2.202   0.000  1.00  0.00     0.050 A 
HETATM   19  C   UNL     1      14.080  -3.501   0.000  1.00  0.00     0.083 A 
HETATM   20  C   UNL     1      13.330  -4.800   0.000  1.00  0.00     0.050 A 
HETATM   21  C   UNL     1      11.830  -4.800   0.000  1.00  0.00     0.029 A 
BRANCH  19  22
HETATM   22  N   UNL     1      15.580  -3.501   0.000  1.00  0.00    -0.122 N 
HETATM   23  O   UNL     1      16.330  -2.202   0.000  1.00  0.00    -0.532 OA
HETATM   24  O   UNL     1      16.330  -4.800   0.000  1.00  0.00    -0.532 OA
ENDBRANCH  19  22
ENDBRANCH   5  16
TORSDOF 6
