REMARK  2 active torsions:
REMARK  status: ('A' for Active; 'I' for Inactive)
REMARK    1  A    between atoms: N_2  and  C_11 
REMARK    2  A    between atoms: C_16  and  S_22 
ROOT
HETATM    1  C   UNL     2     -12.292 -11.021   0.000  1.00  0.00     0.074 A 
HETATM    2  C   UNL     2     -13.788 -10.909   0.000  1.00  0.00     0.074 A 
HETATM    3  C   UNL     2     -11.641 -12.373   0.000  1.00  0.00     0.249 A 
HETATM    4  O   UNL     2     -10.145 -12.485   0.000  1.00  0.00    -0.161 OA
HETATM    5  O   UNL     2     -12.486 -13.612   0.000  1.00  0.00    -0.161 OA
HETATM    6  C   UNL     2     -14.633 -12.149   0.000  1.00  0.00     0.249 A 
HETATM    7  O   UNL     2     -16.128 -12.037   0.000  1.00  0.00    -0.161 OA
HETATM    8  O   UNL     2     -13.982 -13.500   0.000  1.00  0.00    -0.161 OA
ENDROOT
TORSDOF 2
