REMARK  1 active torsions:
REMARK  status: ('A' for Active; 'I' for Inactive)
REMARK    1  A    between atoms: C_9  and  N_18 
ROOT
HETATM    1  O   UNL     1      -5.524   5.471   0.000  1.00  0.00    -0.205 OA
HETATM    2  O   UNL     1      -8.524   5.471   0.000  1.00  0.00    -0.269 OA
HETATM    3  C   UNL     1      -6.274   6.770   0.000  1.00  0.00     0.220 A 
HETATM    4  C   UNL     1      -7.774   6.770   0.000  1.00  0.00     0.124 A 
HETATM    5  C   UNL     1      -8.524   8.069   0.000  1.00  0.00     0.058 A 
HETATM    6  C   UNL     1      -7.774   9.368   0.000  1.00  0.00     0.033 A 
HETATM    7  C   UNL     1      -6.274   9.368   0.000  1.00  0.00     0.128 A 
HETATM    8  N   UNL     1      -5.524   8.069   0.000  1.00  0.00    -0.245 NA
HETATM    9  C   UNL     1      -7.774   4.172   0.000  1.00  0.00     0.327 A 
HETATM   10  O   UNL     1      -8.524   2.873   0.000  1.00  0.00    -0.140 OA
HETATM   11  N   UNL     1      -6.274   4.172   0.000  1.00  0.00    -0.174 N 
ENDROOT
BRANCH  11  12
HETATM   12  C   UNL     1      -5.524   2.873   0.000  1.00  0.00     0.048 A 
HETATM   13  C   UNL     1      -4.024   2.873   0.000  1.00  0.00     0.049 A 
HETATM   14  C   UNL     1      -3.275   1.574   0.000  1.00  0.00     0.058 A 
HETATM   15  C   UNL     1      -4.024   0.275   0.000  1.00  0.00     0.096 A 
HETATM   16  F   UNL     1      -3.275  -1.024   0.000  1.00  0.00    -0.213 F 
HETATM   17  C   UNL     1      -5.524   0.275   0.000  1.00  0.00     0.058 A 
HETATM   18  C   UNL     1      -6.274   1.574   0.000  1.00  0.00     0.049 A 
ENDBRANCH  11  12
TORSDOF 1
