REMARK  1 active torsions:
REMARK  status: ('A' for Active; 'I' for Inactive)
REMARK    1  A    between atoms: N_1  and  C_9 
ROOT
HETATM    1  N   UNL     1      -0.876   6.077   0.000  1.00  0.00    -0.246 N 
HETATM    2  N   UNL     1       0.338   5.195   0.000  1.00  0.00     0.010 NA
HETATM    3  N   UNL     1      -0.126   3.768   0.000  1.00  0.00    -0.161 NA
HETATM    4  C   UNL     1      -3.557   5.507   0.000  1.00  0.00     0.049 A 
HETATM    5  C   UNL     1      -2.090   5.195   0.000  1.00  0.00     0.071 A 
HETATM    6  C   UNL     1      -4.561   4.392   0.000  1.00  0.00     0.046 A 
HETATM    7  C   UNL     1      -1.626   3.768   0.000  1.00  0.00     0.091 A 
HETATM    8  C   UNL     1      -4.097   2.966   0.000  1.00  0.00     0.308 A 
HETATM    9  C   UNL     1      -2.630   2.654   0.000  1.00  0.00     0.087 A 
HETATM   10  N   UNL     1      -5.101   1.851   0.000  1.00  0.00     0.616 N 
ENDROOT
BRANCH   1  11
HETATM   11  C   UNL     1      -0.876   7.577   0.000  1.00  0.00     0.034 A 
HETATM   12  C   UNL     1       0.423   8.327   0.000  1.00  0.00     0.041 A 
HETATM   13  C   UNL     1       0.423   9.827   0.000  1.00  0.00     0.006 A 
HETATM   14  C   UNL     1      -0.876  10.577   0.000  1.00  0.00     0.001 A 
HETATM   15  C   UNL     1      -2.175   9.827   0.000  1.00  0.00     0.006 A 
HETATM   16  C   UNL     1      -2.175   8.327   0.000  1.00  0.00     0.041 A 
ENDBRANCH   1  11
TORSDOF 1
