REMARK  0 active torsions:
REMARK  status: ('A' for Active; 'I' for Inactive)
ROOT
HETATM    1  O   UNL     1       0.750   2.250   0.000  1.00  0.00    -0.150 OA
HETATM    2  N   UNL     1       2.049   4.500   0.000  1.00  0.00    -0.279 N 
HETATM    3  N   UNL     1       3.348   2.250   0.000  1.00  0.00    -0.269 N 
HETATM    4  O   UNL     1       5.946   2.250   0.000  1.00  0.00    -0.211 OA
HETATM    5  C   UNL     1       3.348   5.250   0.000  1.00  0.00     0.156 A 
HETATM    6  C   UNL     1       4.647   4.500   0.000  1.00  0.00     0.154 A 
HETATM    7  C   UNL     1       4.647   3.000   0.000  1.00  0.00     0.209 A 
HETATM    8  C   UNL     1       2.049   3.000   0.000  1.00  0.00     0.265 A 
HETATM    9  C   UNL     1       0.750   5.250   0.000  1.00  0.00     0.135 C 
HETATM   10  N   UNL     1       3.348   6.750   0.000  1.00  0.00    -0.080 NA
HETATM   11  C   UNL     1       3.348   0.750   0.000  1.00  0.00     0.136 C 
HETATM   12  N   UNL     1       5.946   5.250   0.000  1.00  0.00    -0.215 NA
HETATM   13  C   UNL     1       7.245   4.500   0.000  1.00  0.00     0.191 A 
HETATM   14  S   UNL     1       8.544   5.250   0.000  1.00  0.00    -0.075 SA
HETATM   15  N   UNL     1       7.245   3.000   0.000  1.00  0.00    -0.210 N 
HETATM   16  C   UNL     1       8.544   2.250   0.000  1.00  0.00     0.136 A 
HETATM   17  C   UNL     1       9.843   3.000   0.000  1.00  0.00     0.039 A 
HETATM   18  C   UNL     1       9.843   4.500   0.000  1.00  0.00     0.067 A 
ENDROOT
TORSDOF 0
