REMARK  1 active torsions:
REMARK  status: ('A' for Active; 'I' for Inactive)
REMARK    1  A    between atoms: C_15  and  C_16 
ROOT
HETATM    1  C   UNL     1       0.750   6.750   0.000  1.00  0.00     0.005 A 
HETATM    2  C   UNL     1       0.750   5.250   0.000  1.00  0.00     0.022 A 
HETATM    3  C   UNL     1       2.049   7.500   0.000  1.00  0.00     0.005 A 
HETATM    4  C   UNL     1       2.049   4.500   0.000  1.00  0.00    -0.046 A 
HETATM    5  C   UNL     1       2.049   3.000   0.000  1.00  0.00     0.027 A 
HETATM    6  C   UNL     1       3.348   5.250   0.000  1.00  0.00    -0.007 A 
HETATM    7  C   UNL     1       3.348   6.750   0.000  1.00  0.00     0.028 A 
HETATM    8  C   UNL     1       3.348   2.250   0.000  1.00  0.00     0.035 A 
HETATM    9  C   UNL     1       4.647   4.500   0.000  1.00  0.00     0.093 A 
HETATM   10  C   UNL     1       4.647   3.000   0.000  1.00  0.00     0.022 A 
HETATM   11  C   UNL     1       5.946   2.250   0.000  1.00  0.00     0.113 A 
HETATM   12  O   UNL     1       5.946   5.250   0.000  1.00  0.00    -0.312 OA
HETATM   13  O   UNL     1       5.946   0.750   0.000  1.00  0.00    -0.195 OA
HETATM   14  C   UNL     1       7.245   3.000   0.000  1.00  0.00     0.105 A 
HETATM   15  C   UNL     1       7.245   4.500   0.000  1.00  0.00     0.078 A 
ENDROOT
BRANCH  15  16
HETATM   16  C   UNL     1       8.544   5.250   0.000  1.00  0.00    -0.001 A 
HETATM   17  C   UNL     1       8.544   6.750   0.000  1.00  0.00     0.028 A 
HETATM   18  C   UNL     1       9.843   7.500   0.000  1.00  0.00     0.030 A 
HETATM   19  C   UNL     1      11.142   6.750   0.000  1.00  0.00     0.121 A 
HETATM   20  N   UNL     1      11.142   5.250   0.000  1.00  0.00    -0.291 NA
HETATM   21  C   UNL     1       9.843   4.500   0.000  1.00  0.00     0.144 A 
ENDBRANCH  15  16
TORSDOF 1
