REMARK  1 active torsions:
REMARK  status: ('A' for Active; 'I' for Inactive)
REMARK    1  A    between atoms: O_11  and  C_23 
ROOT
HETATM    1  N   UNL     1      -4.405   6.861   0.000  1.00  0.00    -0.254 NA
HETATM    2  C   UNL     1      -3.655   8.160   0.000  1.00  0.00     0.061 A 
HETATM    3  C   UNL     1      -3.655   5.562   0.000  1.00  0.00     0.065 A 
HETATM    4  C   UNL     1      -2.155   8.160   0.000  1.00  0.00     0.041 A 
HETATM    5  C   UNL     1      -2.155   5.562   0.000  1.00  0.00     0.060 A 
HETATM    6  O   UNL     1      -2.155  10.758   0.000  1.00  0.00    -0.188 OA
HETATM    7  C   UNL     1      -1.405   4.263   0.000  1.00  0.00     0.201 A 
HETATM    8  O   UNL     1       0.095   4.263   0.000  1.00  0.00    -0.267 OA
HETATM    9  C   UNL     1      -1.405   9.459   0.000  1.00  0.00     0.157 A 
HETATM   10  C   UNL     1      -1.405   6.861   0.000  1.00  0.00     0.011 A 
HETATM   11  O   UNL     1       0.095   9.459   0.000  1.00  0.00     0.000 OA
HETATM   12  O   UNL     1      -2.155   2.964   0.000  1.00  0.00    -0.313 OA
HETATM   13  C   UNL     1       0.095   6.861   0.000  1.00  0.00     0.037 A 
HETATM   14  C   UNL     1       0.845   8.160   0.000  1.00  0.00    -0.021 A 
HETATM   15  C   UNL     1       0.845   5.562   0.000  1.00  0.00     0.180 A 
HETATM   16  N   UNL     1       2.345   5.562   0.000  1.00  0.00    -0.248 NA
HETATM   17  C   UNL     1       2.345   8.160   0.000  1.00  0.00     0.052 A 
HETATM   18  C   UNL     1       3.095   6.861   0.000  1.00  0.00     0.132 A 
HETATM   19  C   UNL     1      -4.405   9.459   0.000  1.00  0.00     0.052 C 
HETATM   20  C   UNL     1      -4.405   4.263   0.000  1.00  0.00     0.076 A 
HETATM   21  C   UNL     1      -3.655   2.964   0.000  1.00  0.00     0.130 A 
HETATM   22  C   UNL     1      -4.405   1.665   0.000  1.00  0.00     0.033 C 
ENDROOT
BRANCH  11  23
HETATM   23  C   UNL     1       0.845  10.758   0.000  1.00  0.00     0.000 C 
HETATM   24  C   UNL     1       0.095  12.057   0.000  1.00  0.00     0.000 C 
ENDBRANCH  11  23
TORSDOF 1
