REMARK  3 active torsions:
REMARK  status: ('A' for Active; 'I' for Inactive)
REMARK    1  A    between atoms: C_4  and  N_18 
REMARK    2  A    between atoms: C_7  and  N_18 
REMARK    3  A    between atoms: C_14  and  O_15 
ROOT
HETATM    1  C   UNL     1       3.009   0.757   0.000  1.00  0.00     0.067 A 
HETATM    2  C   UNL     1       3.759  -0.542   0.000  1.00  0.00     0.062 A 
HETATM    3  N   UNL     1       3.759   2.056   0.000  1.00  0.00    -0.371 N 
HETATM    4  C   UNL     1       5.259  -0.542   0.000  1.00  0.00     0.045 A 
HETATM    5  H   UNL     1       3.009   3.355   0.000  1.00  0.00     0.161 HD
HETATM    6  C   UNL     1       5.259   2.056   0.000  1.00  0.00     0.092 A 
HETATM    7  C   UNL     1       6.009   0.757   0.000  1.00  0.00     0.096 A 
HETATM    8  S   UNL     1       6.009   3.355   0.000  1.00  0.00    -0.064 SA
HETATM    9  C   UNL     1       1.859   1.721   0.000  1.00  0.00     0.022 C 
HETATM   10  C   UNL     1       1.859  -0.208   0.000  1.00  0.00     0.022 C 
ENDROOT
BRANCH   4  11
HETATM   11  N   UNL     1       6.009  -1.841   0.000  1.00  0.00    -0.262 NA
BRANCH  11  12
HETATM   12  C   UNL     1       7.509  -1.841   0.000  1.00  0.00     0.036 A 
HETATM   13  C   UNL     1       8.259  -0.542   0.000  1.00  0.00     0.044 A 
HETATM   14  C   UNL     1       9.759  -0.542   0.000  1.00  0.00     0.036 A 
HETATM   15  C   UNL     1      10.509  -1.841   0.000  1.00  0.00     0.116 A 
HETATM   16  C   UNL     1       9.759  -3.140   0.000  1.00  0.00     0.036 A 
HETATM   17  C   UNL     1       8.259  -3.140   0.000  1.00  0.00     0.044 A 
BRANCH  15  18
HETATM   18  O   UNL     1      12.009  -1.841   0.000  1.00  0.00    -0.354 OA
HETATM   19  C   UNL     1      12.759  -0.542   0.000  1.00  0.00     0.174 C 
ENDBRANCH  15  18
ENDBRANCH  11  12
ENDBRANCH   4  11
TORSDOF 3
