REMARK  4 active torsions:
REMARK  status: ('A' for Active; 'I' for Inactive)
REMARK    1  A    between atoms: C_8  and  O_9 
REMARK    2  A    between atoms: O_9  and  C_10 
REMARK    3  A    between atoms: C_10  and  C_12 
REMARK    4  A    between atoms: C_17  and  O_18 
ROOT
HETATM    1  C   UNL     1       4.399   6.870   0.000  1.00  0.00     0.224 C 
HETATM    2  O   UNL     1       3.650   8.169   0.000  1.00  0.00    -0.164 OA
ENDROOT
BRANCH   1   3
HETATM    3  O   UNL     1       3.650   5.571   0.000  1.00  0.00    -0.285 OA
BRANCH   3   4
HETATM    4  C   UNL     1       2.150   5.571   0.000  1.00  0.00     0.121 A 
HETATM    5  C   UNL     1       1.399   4.272   0.000  1.00  0.00     0.206 A 
HETATM    6  N   UNL     1      -0.101   4.272   0.000  1.00  0.00    -0.351 N 
HETATM    7  O   UNL     1       2.150   2.973   0.000  1.00  0.00    -0.170 OA
HETATM    8  C   UNL     1      -0.851   5.571   0.000  1.00  0.00     0.100 A 
HETATM    9  H   UNL     1      -0.851   2.973   0.000  1.00  0.00     0.162 HD
HETATM   10  C   UNL     1      -0.101   6.870   0.000  1.00  0.00     0.031 A 
HETATM   11  C   UNL     1       1.399   6.870   0.000  1.00  0.00     0.057 A 
ENDBRANCH   3   4
ENDBRANCH   1   3
BRANCH   1  12
HETATM   12  C   UNL     1       5.899   6.870   0.000  1.00  0.00     0.005 A 
HETATM   13  C   UNL     1       6.649   8.169   0.000  1.00  0.00     0.029 A 
HETATM   14  C   UNL     1       8.149   8.169   0.000  1.00  0.00     0.034 A 
HETATM   15  C   UNL     1       8.899   6.870   0.000  1.00  0.00     0.116 A 
HETATM   16  C   UNL     1       8.149   5.571   0.000  1.00  0.00     0.034 A 
HETATM   17  C   UNL     1       6.649   5.571   0.000  1.00  0.00     0.029 A 
BRANCH  15  18
HETATM   18  O   UNL     1      10.399   6.870   0.000  1.00  0.00    -0.354 OA
HETATM   19  C   UNL     1      11.149   8.169   0.000  1.00  0.00     0.174 C 
ENDBRANCH  15  18
ENDBRANCH   1  12
TORSDOF 4
