REMARK  0 active torsions:
REMARK  status: ('A' for Active; 'I' for Inactive)
ROOT
HETATM    1  C   UNL     1       2.640  -3.457   0.000  1.00  0.00     0.046 A 
HETATM    2  C   UNL     1       2.177  -4.883   0.000  1.00  0.00     0.017 A 
HETATM    3  N   UNL     1       3.390  -5.765   0.000  1.00  0.00    -0.322 N 
HETATM    4  C   UNL     1       4.604  -4.883   0.000  1.00  0.00     0.115 A 
HETATM    5  C   UNL     1       4.140  -3.457   0.000  1.00  0.00     0.056 A 
HETATM    6  C   UNL     1       3.854  -7.191   0.000  1.00  0.00     0.133 A 
HETATM    7  N   UNL     1       5.817  -5.765   0.000  1.00  0.00    -0.256 NA
HETATM    8  C   UNL     1       5.354  -7.191   0.000  1.00  0.00     0.151 A 
HETATM    9  C   UNL     1       0.750  -5.347   0.000  1.00  0.00     0.045 C 
HETATM   10  C   UNL     1       3.983  -1.965   0.000  1.00  0.00     0.008 C 
HETATM   11  C   UNL     1       5.607  -3.145   0.000  1.00  0.00     0.008 C 
ENDROOT
TORSDOF 0
