REMARK  2 active torsions:
REMARK  status: ('A' for Active; 'I' for Inactive)
REMARK    1  A    between atoms: O_1  and  C_2 
REMARK       I    between atoms: C_2  and  N_18 
REMARK    2  A    between atoms: C_5  and  N_18 
ROOT
HETATM    1  C   UNL     1       5.044  -0.429   0.000  1.00  0.00     0.109 A 
HETATM    2  C   UNL     1       5.926   0.784   0.000  1.00  0.00     0.090 A 
HETATM    3  S   UNL     1       5.926  -1.643   0.000  1.00  0.00    -0.106 SA
HETATM    4  C   UNL     1       7.352   0.321   0.000  1.00  0.00     0.079 A 
HETATM    5  C   UNL     1       7.352  -1.179   0.000  1.00  0.00     0.042 A 
HETATM    6  H   UNL     1       7.839   2.767   0.000  1.00  0.00     0.168 HD
HETATM    7  N   UNL     1       8.413   1.381   0.000  1.00  0.00    -0.331 N 
HETATM    8  C   UNL     1       8.413  -2.240   0.000  1.00  0.00     0.008 A 
HETATM    9  C   UNL     1       9.913   1.381   0.000  1.00  0.00     0.191 A 
HETATM   10  C   UNL     1       9.913  -2.240   0.000  1.00  0.00     0.001 A 
HETATM   11  C   UNL     1      10.974   0.321   0.000  1.00  0.00     0.045 A 
HETATM   12  C   UNL     1      10.974  -1.179   0.000  1.00  0.00     0.004 A 
HETATM   13  O   UNL     1      10.487   2.767   0.000  1.00  0.00    -0.171 OA
ENDROOT
BRANCH   2  14
HETATM   14  N   UNL     1       5.462   2.211   0.000  1.00  0.00    -0.201 NA
HETATM   15  C   UNL     1       3.995   2.523   0.000  1.00  0.00     0.319 C 
HETATM   16  O   UNL     1       3.532   3.949   0.000  1.00  0.00    -0.141 OA
BRANCH  15  17
HETATM   17  O   UNL     1       2.991   1.408   0.000  1.00  0.00    -0.292 OA
HETATM   18  C   UNL     1       1.524   1.720   0.000  1.00  0.00     0.185 C 
ENDBRANCH  15  17
ENDBRANCH   2  14
TORSDOF 2
