REMARK  1 active torsions:
REMARK  status: ('A' for Active; 'I' for Inactive)
REMARK    1  A    between atoms: C_1  and  N_11 
ROOT
HETATM    1  C   UNL     1       3.623   0.275   0.000  1.00  0.00     0.088 A 
HETATM    2  C   UNL     1       3.623  -1.226   0.000  1.00  0.00     0.052 A 
HETATM    3  C   UNL     1       4.922   1.024   0.000  1.00  0.00     0.093 A 
HETATM    4  C   UNL     1       4.922  -1.976   0.000  1.00  0.00     0.051 A 
HETATM    5  C   UNL     1       6.221   0.275   0.000  1.00  0.00     0.079 A 
HETATM    6  C   UNL     1       6.221  -1.226   0.000  1.00  0.00     0.050 A 
HETATM    7  N   UNL     1       7.647  -1.689   0.000  1.00  0.00    -0.330 N 
HETATM    8  N   UNL     1       7.647   0.738   0.000  1.00  0.00    -0.219 NA
HETATM    9  H   UNL     1       8.111  -3.116   0.000  1.00  0.00     0.168 HD
HETATM   10  C   UNL     1       8.529  -0.475   0.000  1.00  0.00     0.215 A 
HETATM   11  N   UNL     1      10.029  -0.475   0.000  1.00  0.00    -0.061 NA
ENDROOT
BRANCH   1  12
HETATM   12  N   UNL     1       2.324   1.024   0.000  1.00  0.00    -0.122 N 
HETATM   13  O   UNL     1       1.024   0.275   0.000  1.00  0.00    -0.532 OA
HETATM   14  O   UNL     1       2.324   2.525   0.000  1.00  0.00    -0.532 OA
ENDBRANCH   1  12
TORSDOF 1
