REMARK  0 active torsions:
REMARK  status: ('A' for Active; 'I' for Inactive)
ROOT
HETATM    1  C   UNL     1       1.824   4.500   0.000  1.00  0.00     0.080 A 
HETATM    2  C   UNL     1       1.824   3.000   0.000  1.00  0.00     0.105 A 
HETATM    3  C   UNL     1       3.123   5.250   0.000  1.00  0.00     0.134 A 
HETATM    4  O   UNL     1       3.123   6.750   0.000  1.00  0.00    -0.193 OA
HETATM    5  N   UNL     1       3.123   2.250   0.000  1.00  0.00    -0.373 N 
HETATM    6  H   UNL     1       3.123   0.750   0.000  1.00  0.00     0.160 HD
HETATM    7  C   UNL     1       4.422   4.500   0.000  1.00  0.00     0.138 A 
HETATM    8  C   UNL     1       4.422   3.000   0.000  1.00  0.00     0.078 A 
HETATM    9  O   UNL     1       5.721   5.250   0.000  1.00  0.00    -0.267 OA
HETATM   10  O   UNL     1       8.319   5.250   0.000  1.00  0.00    -0.143 OA
HETATM   11  C   UNL     1       7.021   4.500   0.000  1.00  0.00     0.301 A 
HETATM   12  C   UNL     1       5.721   2.250   0.000  1.00  0.00     0.151 A 
HETATM   13  N   UNL     1       7.021   3.000   0.000  1.00  0.00    -0.300 N 
HETATM   14  C   UNL     1       8.319   2.250   0.000  1.00  0.00     0.130 C 
ENDROOT
TORSDOF 0
