REMARK  3 active torsions:
REMARK  status: ('A' for Active; 'I' for Inactive)
REMARK    1  A    between atoms: C_6  and  S_7 
REMARK    2  A    between atoms: C_10  and  N_19 
REMARK    3  A    between atoms: C_13  and  N_19 
ROOT
HETATM    1  S   UNL     1       6.750   2.250   0.000  1.00  0.00     0.210 S 
HETATM    2  O   UNL     1       6.750   3.750   0.000  1.00  0.00    -0.114 OA
HETATM    3  O   UNL     1       6.750   0.750   0.000  1.00  0.00    -0.216 OA
HETATM    4  C   UNL     1       8.763   3.659   0.000  1.00  0.00     0.312 A 
HETATM    5  O   UNL     1       7.799   4.809   0.000  1.00  0.00    -0.140 OA
HETATM    6  N   UNL     1       8.250   2.250   0.000  1.00  0.00    -0.127 NA
ENDROOT
BRANCH   1   7
HETATM    7  C   UNL     1       5.250   2.250   0.000  1.00  0.00     0.117 A 
HETATM    8  C   UNL     1       4.500   0.951   0.000  1.00  0.00     0.017 A 
HETATM    9  C   UNL     1       3.000   0.951   0.000  1.00  0.00     0.001 A 
HETATM   10  C   UNL     1       2.250   2.250   0.000  1.00  0.00     0.000 A 
HETATM   11  C   UNL     1       3.000   3.549   0.000  1.00  0.00     0.001 A 
HETATM   12  C   UNL     1       0.750   2.250   0.000  1.00  0.00     0.000 C 
HETATM   13  C   UNL     1       4.500   3.549   0.000  1.00  0.00     0.017 A 
ENDBRANCH   1   7
BRANCH   4  14
HETATM   14  N   UNL     1      10.240   3.920   0.000  1.00  0.00    -0.178 NA
BRANCH  14  15
HETATM   15  C   UNL     1      11.204   2.771   0.000  1.00  0.00     0.189 A 
HETATM   16  N   UNL     1      10.842   1.315   0.000  1.00  0.00    -0.247 NA
HETATM   17  C   UNL     1      12.114   0.521   0.000  1.00  0.00     0.140 A 
HETATM   18  C   UNL     1      13.263   1.485   0.000  1.00  0.00     0.091 A 
HETATM   19  S   UNL     1      12.701   2.876   0.000  1.00  0.00    -0.074 SA
ENDBRANCH  14  15
ENDBRANCH   4  14
TORSDOF 3
