REMARK  4 active torsions:
REMARK  status: ('A' for Active; 'I' for Inactive)
REMARK    1  A    between atoms: O_1  and  C_19 
REMARK    2  A    between atoms: N_8  and  C_20 
REMARK    3  A    between atoms: N_16  and  C_21 
REMARK    4  A    between atoms: C_19  and  C_20 
ROOT
HETATM    1  C   UNL     1       1.674   1.399   0.000  1.00  0.00     0.007 A 
HETATM    2  C   UNL     1       1.674  -0.101   0.000  1.00  0.00     0.007 A 
HETATM    3  C   UNL     1       2.973   2.150   0.000  1.00  0.00     0.045 A 
HETATM    4  C   UNL     1       2.973  -0.851   0.000  1.00  0.00     0.047 A 
HETATM    5  C   UNL     1       4.272   1.399   0.000  1.00  0.00     0.052 A 
HETATM    6  C   UNL     1       4.272  -0.101   0.000  1.00  0.00     0.071 A 
HETATM    7  N   UNL     1       5.571   2.150   0.000  1.00  0.00    -0.312 N 
HETATM    8  N   UNL     1       5.571  -0.851   0.000  1.00  0.00    -0.242 NA
HETATM    9  C   UNL     1       6.870  -0.100   0.000  1.00  0.00     0.157 A 
HETATM   10  C   UNL     1       6.870   1.400   0.000  1.00  0.00     0.169 A 
HETATM   11  N   UNL     1       8.169   2.150   0.000  1.00  0.00    -0.185 NA
HETATM   12  C   UNL     1       8.169  -0.850   0.000  1.00  0.00     0.221 A 
HETATM   13  O   UNL     1       8.169  -2.350   0.000  1.00  0.00    -0.169 OA
HETATM   14  C   UNL     1       9.468   1.400   0.000  1.00  0.00     0.288 A 
HETATM   15  N   UNL     1       9.468  -0.100   0.000  1.00  0.00    -0.255 N 
HETATM   16  O   UNL     1      10.767   2.150   0.000  1.00  0.00    -0.148 OA
ENDROOT
BRANCH  15  17
HETATM   17  C   UNL     1      10.767  -0.850   0.000  1.00  0.00     0.024 A 
HETATM   18  C   UNL     1      12.066  -0.100   0.000  1.00  0.00     0.040 A 
HETATM   19  C   UNL     1      13.365  -0.850   0.000  1.00  0.00     0.006 A 
HETATM   20  C   UNL     1      13.365  -2.350   0.000  1.00  0.00     0.001 A 
HETATM   21  C   UNL     1      12.066  -3.100   0.000  1.00  0.00     0.006 A 
HETATM   22  C   UNL     1      10.767  -2.350   0.000  1.00  0.00     0.040 A 
ENDBRANCH  15  17
BRANCH   7  23
HETATM   23  C   UNL     1       5.571   3.650   0.000  1.00  0.00     0.139 C 
BRANCH  23  24
HETATM   24  C   UNL     1       4.272   4.399   0.000  1.00  0.00     0.167 C 
BRANCH  24  25
HETATM   25  O   UNL     1       4.272   5.899   0.000  1.00  0.00    -0.349 OA
HETATM   26  C   UNL     1       5.571   6.649   0.000  1.00  0.00     0.174 C 
ENDBRANCH  24  25
ENDBRANCH  23  24
ENDBRANCH   7  23
TORSDOF 4
