REMARK  1 active torsions:
REMARK  status: ('A' for Active; 'I' for Inactive)
REMARK    1  A    between atoms: N_1  and  C_11 
ROOT
HETATM    1  N   UNL     1       5.946   3.000   0.000  1.00  0.00    -0.365 N 
HETATM    2  C   UNL     1       4.647   3.750   0.000  1.00  0.00     0.119 A 
HETATM    3  C   UNL     1       3.348   3.000   0.000  1.00  0.00    -0.030 A 
HETATM    4  C   UNL     1       2.049   3.750   0.000  1.00  0.00     0.023 A 
HETATM    5  C   UNL     1       0.750   3.000   0.000  1.00  0.00     0.005 A 
HETATM    6  C   UNL     1       3.348   1.500   0.000  1.00  0.00    -0.048 A 
HETATM    7  C   UNL     1       0.750   1.500   0.000  1.00  0.00     0.005 A 
HETATM    8  C   UNL     1       2.049   0.750   0.000  1.00  0.00     0.021 A 
HETATM    9  C   UNL     1       4.647   0.750   0.000  1.00  0.00     0.045 A 
HETATM   10  C   UNL     1       5.946   1.500   0.000  1.00  0.00     0.102 A 
ENDROOT
BRANCH   1  11
HETATM   11  C   UNL     1       7.245   3.750   0.000  1.00  0.00     0.097 C 
HETATM   12  C   UNL     1       8.544   3.000   0.000  1.00  0.00     0.026 C 
ENDBRANCH   1  11
TORSDOF 1
