REMARK  2 active torsions:
REMARK  status: ('A' for Active; 'I' for Inactive)
REMARK    1  A    between atoms: C_10  and  O_12 
REMARK    2  A    between atoms: O_12  and  C_13 
ROOT
HETATM    1  C   UNL     1       0.750   4.500   0.000  1.00  0.00     0.147 A 
HETATM    2  C   UNL     1       0.750   3.000   0.000  1.00  0.00     0.052 A 
HETATM    3  N   UNL     1       2.049   5.250   0.000  1.00  0.00    -0.087 NA
HETATM    4  C   UNL     1       2.049   2.250   0.000  1.00  0.00     0.130 A 
HETATM    5  C   UNL     1       3.348   4.500   0.000  1.00  0.00     0.733 A 
HETATM    6  N   UNL     1       3.348   3.000   0.000  1.00  0.00    -0.122 N 
HETATM    7  C   UNL     1       4.647   2.250   0.000  1.00  0.00     0.299 A 
HETATM    8  N   UNL     1       4.647   5.250   0.000  1.00  0.00    -0.018 NA
HETATM    9  O   UNL     1       4.647   0.750   0.000  1.00  0.00    -0.148 OA
HETATM   10  C   UNL     1       5.946   4.500   0.000  1.00  0.00     0.290 A 
HETATM   11  N   UNL     1       5.946   3.000   0.000  1.00  0.00    -0.162 NA
ENDROOT
BRANCH  10  12
HETATM   12  O   UNL     1       7.245   5.250   0.000  1.00  0.00    -0.302 OA
BRANCH  12  13
HETATM   13  C   UNL     1       8.544   4.500   0.000  1.00  0.00     0.124 A 
HETATM   14  C   UNL     1       9.843   5.250   0.000  1.00  0.00     0.030 A 
HETATM   15  C   UNL     1      11.142   4.500   0.000  1.00  0.00     0.003 A 
HETATM   16  C   UNL     1      11.142   3.000   0.000  1.00  0.00     0.000 A 
HETATM   17  C   UNL     1       9.843   2.250   0.000  1.00  0.00     0.003 A 
HETATM   18  C   UNL     1       8.544   3.000   0.000  1.00  0.00     0.030 A 
ENDBRANCH  12  13
ENDBRANCH  10  12
TORSDOF 2
