REMARK  0 active torsions:
REMARK  status: ('A' for Active; 'I' for Inactive)
ROOT
HETATM    1  C   UNL     1       1.758  -0.044   0.000  1.00  0.00     0.005 A 
HETATM    2  C   UNL     1       1.758  -1.544   0.000  1.00  0.00     0.005 A 
HETATM    3  C   UNL     1       3.057   0.706   0.000  1.00  0.00     0.027 A 
HETATM    4  C   UNL     1       3.057  -2.295   0.000  1.00  0.00     0.028 A 
HETATM    5  C   UNL     1       4.356  -0.044   0.000  1.00  0.00    -0.016 A 
HETATM    6  C   UNL     1       4.356  -1.544   0.000  1.00  0.00     0.000 A 
HETATM    7  C   UNL     1       5.655  -2.295   0.000  1.00  0.00     0.126 A 
HETATM    8  C   UNL     1       5.655   0.706   0.000  1.00  0.00     0.056 A 
HETATM    9 CL   UNL     1       5.655   2.205   0.000  1.00  0.00    -0.085 Cl
HETATM   10  N   UNL     1       6.954  -1.544   0.000  1.00  0.00    -0.256 NA
HETATM   11  C   UNL     1       6.954  -0.044   0.000  1.00  0.00     0.164 A 
HETATM   12  C   UNL     1       5.655  -3.795   0.000  1.00  0.00     0.040 C 
HETATM   13  N   UNL     1       5.655  -5.295   0.000  1.00  0.00    -0.094 N 
ENDROOT
TORSDOF 0
