REMARK  3 active torsions:
REMARK  status: ('A' for Active; 'I' for Inactive)
REMARK    1  A    between atoms: N_3  and  C_17 
REMARK    2  A    between atoms: N_4  and  C_17 
REMARK    3  A    between atoms: C_9  and  C_10 
ROOT
HETATM    1  N   UNL     1      -2.250   3.348   0.000  1.00  0.00    -0.075 N 
HETATM    2  C   UNL     1      -0.750   3.348   0.000  1.00  0.00     0.121 C 
HETATM    3  N   UNL     1       0.750   3.348   0.000  1.00  0.00    -0.186 NA
ENDROOT
BRANCH   3   4
HETATM    4  C   UNL     1       1.500   2.049   0.000  1.00  0.00     0.238 C 
BRANCH   4   5
HETATM    5  N   UNL     1       3.000   2.049   0.000  1.00  0.00    -0.347 N 
HETATM    6  C   UNL     1       3.750   3.348   0.000  1.00  0.00     0.103 A 
HETATM    7  C   UNL     1       5.250   3.348   0.000  1.00  0.00     0.045 A 
HETATM    8  C   UNL     1       6.000   2.049   0.000  1.00  0.00    -0.048 A 
HETATM    9  C   UNL     1       5.250   0.750   0.000  1.00  0.00     0.045 A 
HETATM   10  C   UNL     1       3.750   0.750   0.000  1.00  0.00     0.103 A 
BRANCH   8  11
HETATM   11  C   UNL     1       7.500   2.049   0.000  1.00  0.00    -0.051 A 
HETATM   12  C   UNL     1       8.250   3.348   0.000  1.00  0.00     0.027 A 
HETATM   13  C   UNL     1       9.750   3.348   0.000  1.00  0.00     0.038 A 
HETATM   14  C   UNL     1      10.500   2.049   0.000  1.00  0.00     0.014 A 
HETATM   15  C   UNL     1       9.750   0.750   0.000  1.00  0.00     0.038 A 
HETATM   16 CL   UNL     1      12.000   2.049   0.000  1.00  0.00    -0.092 Cl
HETATM   17  C   UNL     1       8.250   0.750   0.000  1.00  0.00     0.027 A 
ENDBRANCH   8  11
ENDBRANCH   4   5
ENDBRANCH   3   4
TORSDOF 3
