REMARK  3 active torsions:
REMARK  status: ('A' for Active; 'I' for Inactive)
REMARK    1  A    between atoms: O_1  and  C_2 
REMARK    2  A    between atoms: C_4  and  O_5 
REMARK    3  A    between atoms: O_21  and  C_26 
ROOT
HETATM    1  C   UNL     1       4.272   1.399   0.000  1.00  0.00     0.094 A 
HETATM    2  C   UNL     1       4.272  -0.101   0.000  1.00  0.00     0.058 A 
HETATM    3  C   UNL     1       5.571   2.150   0.000  1.00  0.00     0.108 A 
HETATM    4  C   UNL     1       5.571  -0.851   0.000  1.00  0.00     0.034 A 
HETATM    5  C   UNL     1       6.870   1.399   0.000  1.00  0.00     0.004 A 
HETATM    6  C   UNL     1       6.870  -0.101   0.000  1.00  0.00    -0.008 A 
HETATM    7  H   UNL     1       6.870  -3.100   0.000  1.00  0.00     0.161 HD
HETATM    8  C   UNL     1       8.169   2.150   0.000  1.00  0.00     0.057 A 
HETATM    9  C   UNL     1       8.169  -0.851   0.000  1.00  0.00     0.051 A 
HETATM   10  N   UNL     1       8.169  -2.350   0.000  1.00  0.00    -0.369 N 
HETATM   11  C   UNL     1       9.468  -0.100   0.000  1.00  0.00     0.039 A 
HETATM   12  C   UNL     1       9.468   1.400   0.000  1.00  0.00     0.013 A 
HETATM   13  C   UNL     1       9.468  -3.100   0.000  1.00  0.00     0.136 A 
HETATM   14  C   UNL     1      10.767  -0.851   0.000  1.00  0.00     0.138 A 
HETATM   15  C   UNL     1      10.767  -2.350   0.000  1.00  0.00     0.080 A 
HETATM   16  O   UNL     1      10.767   3.650   0.000  1.00  0.00    -0.188 OA
HETATM   17  C   UNL     1      10.767   2.150   0.000  1.00  0.00     0.152 A 
HETATM   18  O   UNL     1      12.066  -0.100   0.000  1.00  0.00    -0.190 OA
HETATM   19  O   UNL     1      12.066   1.400   0.000  1.00  0.00     0.000 OA
HETATM   20  C   UNL     1      12.066  -3.100   0.000  1.00  0.00     0.021 C 
HETATM   21  N   UNL     1      13.365  -3.850   0.000  1.00  0.00    -0.096 N 
ENDROOT
BRANCH  19  22
HETATM   22  C   UNL     1      13.365   2.150   0.000  1.00  0.00     0.000 C 
HETATM   23  C   UNL     1      13.365   3.650   0.000  1.00  0.00     0.000 C 
ENDBRANCH  19  22
BRANCH   3  24
HETATM   24  O   UNL     1       5.571   3.650   0.000  1.00  0.00    -0.327 OA
HETATM   25  C   UNL     1       6.870   4.399   0.000  1.00  0.00     0.181 C 
ENDBRANCH   3  24
BRANCH   1  26
HETATM   26  O   UNL     1       2.973   2.150   0.000  1.00  0.00    -0.330 OA
HETATM   27  C   UNL     1       2.973   3.650   0.000  1.00  0.00     0.181 C 
ENDBRANCH   1  26
TORSDOF 3
