REMARK  3 active torsions:
REMARK  status: ('A' for Active; 'I' for Inactive)
REMARK    1  A    between atoms: C_5  and  O_7 
REMARK    2  A    between atoms: O_7  and  C_8 
REMARK    3  A    between atoms: C_8  and  C_10 
ROOT
HETATM    1  C   UNL     1      -3.522  -4.399   0.000  1.00  0.00     0.225 C 
HETATM    2  O   UNL     1      -4.821  -3.650   0.000  1.00  0.00    -0.164 OA
ENDROOT
BRANCH   1   3
HETATM    3  O   UNL     1      -3.522  -5.899   0.000  1.00  0.00    -0.285 OA
BRANCH   3   4
HETATM    4  C   UNL     1      -4.821  -6.649   0.000  1.00  0.00     0.123 A 
HETATM    5  C   UNL     1      -6.120  -5.899   0.000  1.00  0.00     0.058 A 
HETATM    6  C   UNL     1      -7.419  -6.649   0.000  1.00  0.00     0.033 A 
HETATM    7  C   UNL     1      -7.419  -8.149   0.000  1.00  0.00     0.128 A 
HETATM    8  N   UNL     1      -6.120  -8.899   0.000  1.00  0.00    -0.245 NA
HETATM    9  C   UNL     1      -4.821  -8.149   0.000  1.00  0.00     0.227 A 
HETATM   10  O   UNL     1      -3.522  -8.899   0.000  1.00  0.00    -0.168 OA
ENDBRANCH   3   4
ENDBRANCH   1   3
BRANCH   1  11
HETATM   11  C   UNL     1      -2.223  -3.650   0.000  1.00  0.00     0.010 A 
HETATM   12  C   UNL     1      -2.223  -2.150   0.000  1.00  0.00     0.027 A 
HETATM   13  C   UNL     1      -0.924  -1.399   0.000  1.00  0.00     0.010 A 
HETATM   14  C   UNL     1       0.375  -2.150   0.000  1.00  0.00     0.034 A 
HETATM   15  C   UNL     1       0.375  -3.650   0.000  1.00  0.00     0.018 A 
HETATM   16  C   UNL     1      -0.924  -4.399   0.000  1.00  0.00     0.060 A 
HETATM   17 CL   UNL     1       1.674  -4.399   0.000  1.00  0.00    -0.091 Cl
ENDBRANCH   1  11
TORSDOF 3
