REMARK  4 active torsions:
REMARK  status: ('A' for Active; 'I' for Inactive)
REMARK    1  A    between atoms: C_5  and  N_7 
REMARK    2  A    between atoms: N_7  and  N_8 
REMARK    3  A    between atoms: N_8  and  C_9 
REMARK    4  A    between atoms: C_14  and  N_15 
ROOT
HETATM    1  C   UNL     1       4.700  -0.982   0.000  1.00  0.00     0.059 A 
HETATM    2  C   UNL     1       5.450   0.317   0.000  1.00  0.00     0.049 A 
HETATM    3  C   UNL     1       5.450  -2.281   0.000  1.00  0.00     0.049 A 
HETATM    4  C   UNL     1       6.950   0.317   0.000  1.00  0.00     0.045 A 
HETATM    5  C   UNL     1       6.950  -2.281   0.000  1.00  0.00     0.045 A 
HETATM    6  C   UNL     1       7.700  -0.982   0.000  1.00  0.00     0.011 A 
ENDROOT
BRANCH   1   7
HETATM    7  N   UNL     1       3.200  -0.982   0.000  1.00  0.00    -0.155 NA
BRANCH   7   8
HETATM    8  N   UNL     1       2.450   0.317   0.000  1.00  0.00    -0.122 NA
BRANCH   8   9
HETATM    9  C   UNL     1       0.951   0.317   0.000  1.00  0.00     0.217 A 
HETATM   10  N   UNL     1       0.069  -0.896   0.000  1.00  0.00    -0.168 N 
HETATM   11  C   UNL     1      -1.358  -0.433   0.000  1.00  0.00     0.059 A 
HETATM   12  O   UNL     1       0.532  -2.323   0.000  1.00  0.00    -0.079 OA
HETATM   13  C   UNL     1      -1.358   1.067   0.000  1.00  0.00     0.107 A 
HETATM   14  C   UNL     1      -2.571  -1.314   0.000  1.00  0.00     0.049 C 
HETATM   15  S   UNL     1       0.069   1.531   0.000  1.00  0.00    -0.067 SA
ENDBRANCH   8   9
ENDBRANCH   7   8
ENDBRANCH   1   7
BRANCH   6  16
HETATM   16  N   UNL     1       9.200  -0.982   0.000  1.00  0.00    -0.351 N 
HETATM   17  C   UNL     1       9.950  -2.281   0.000  1.00  0.00     0.125 C 
HETATM   18  C   UNL     1       9.950   0.317   0.000  1.00  0.00     0.125 C 
ENDBRANCH   6  16
TORSDOF 4
