REMARK  1 active torsions:
REMARK  status: ('A' for Active; 'I' for Inactive)
REMARK    1  A    between atoms: C_12  and  N_14 
ROOT
HETATM    1  H   UNL     1      -4.197   1.149   0.000  1.00  0.00     0.168 HD
HETATM    2  N   UNL     1      -3.036   0.199   0.000  1.00  0.00    -0.331 N 
HETATM    3  C   UNL     1      -3.389  -1.259   0.000  1.00  0.00     0.074 A 
HETATM    4  C   UNL     1      -2.469  -2.444   0.000  1.00  0.00     0.021 A 
HETATM    5  O   UNL     1      -1.657   2.332   0.000  1.00  0.00    -0.171 OA
HETATM    6  C   UNL     1      -1.677   0.832   0.000  1.00  0.00     0.193 A 
HETATM    7  C   UNL     1      -0.969  -2.463   0.000  1.00  0.00     0.026 A 
HETATM    8  C   UNL     1      -0.334   0.164   0.000  1.00  0.00     0.064 A 
HETATM    9  C   UNL     1      -0.018  -1.302   0.000  1.00  0.00     0.105 A 
HETATM   10  C   UNL     1       0.964   0.917   0.000  1.00  0.00     0.029 A 
HETATM   11  O   UNL     1       1.474  -1.456   0.000  1.00  0.00    -0.286 OA
HETATM   12  C   UNL     1       2.081  -0.084   0.000  1.00  0.00     0.223 A 
HETATM   13  C   UNL     1       1.117   2.409   0.000  1.00  0.00     0.035 C 
ENDROOT
BRANCH  12  14
HETATM   14  N   UNL     1       3.547   0.231   0.000  1.00  0.00    -0.090 N 
HETATM   15  O   UNL     1       4.008   1.658   0.000  1.00  0.00    -0.530 OA
HETATM   16  O   UNL     1       4.553  -0.882   0.000  1.00  0.00    -0.530 OA
ENDBRANCH  12  14
TORSDOF 1
