REMARK  4 active torsions:
REMARK  status: ('A' for Active; 'I' for Inactive)
REMARK    1  A    between atoms: C_10  and  N_16 
REMARK       I    between atoms: C_12  and  N_16 
REMARK    2  A    between atoms: C_12  and  C_25 
REMARK    3  A    between atoms: C_19  and  C_25 
REMARK    4  A    between atoms: C_25  and  C_26 
ROOT
HETATM    1  C   UNL     1       1.561   0.412   0.000  1.00  0.00     0.207 C 
HETATM    2  O   UNL     1       0.829   1.721   0.000  1.00  0.00    -0.170 OA
HETATM    3  N   UNL     1       0.794  -0.876   0.000  1.00  0.00    -0.246 NA
ENDROOT
BRANCH   3   4
HETATM    4  C   UNL     1      -0.680  -0.596   0.000  1.00  0.00     0.130 A 
HETATM    5  C   UNL     1      -1.174   0.820   0.000  1.00  0.00     0.030 A 
HETATM    6  C   UNL     1      -2.647   1.100   0.000  1.00  0.00     0.035 A 
HETATM    7  C   UNL     1      -3.627  -0.036   0.000  1.00  0.00     0.133 A 
HETATM    8  O   UNL     1      -3.133  -1.452   0.000  1.00  0.00    -0.356 OA
HETATM    9  C   UNL     1      -4.576   1.126   0.000  1.00  0.00     0.133 A 
HETATM   10  C   UNL     1      -4.936  -0.769   0.000  1.00  0.00     0.015 A 
HETATM   11  C   UNL     1      -1.659  -1.732   0.000  1.00  0.00     0.114 A 
HETATM   12  C   UNL     1      -0.370  -2.500   0.000  1.00  0.00     0.032 C 
HETATM   13  C   UNL     1      -2.191  -3.135   0.000  1.00  0.00     0.032 C 
HETATM   14  N   UNL     1      -5.992   0.631   0.000  1.00  0.00    -0.349 N 
HETATM   15  C   UNL     1      -7.224   1.487   0.000  1.00  0.00     0.102 A 
HETATM   16  C   UNL     1      -6.425  -0.805   0.000  1.00  0.00     0.031 A 
HETATM   17  C   UNL     1      -8.418   0.579   0.000  1.00  0.00     0.030 A 
HETATM   18  C   UNL     1      -7.924  -0.837   0.000  1.00  0.00     0.045 A 
ENDBRANCH   3   4
BRANCH   1  19
HETATM   19  C   UNL     1       3.061   0.393   0.000  1.00  0.00     0.028 C 
BRANCH  19  20
HETATM   20  C   UNL     1       3.794  -0.916   0.000  1.00  0.00    -0.041 A 
HETATM   21  C   UNL     1       5.294  -0.936   0.000  1.00  0.00     0.022 A 
HETATM   22  C   UNL     1       6.026  -2.245   0.000  1.00  0.00     0.004 A 
HETATM   23  C   UNL     1       5.259  -3.534   0.000  1.00  0.00     0.001 A 
HETATM   24  C   UNL     1       3.759  -3.514   0.000  1.00  0.00     0.004 A 
HETATM   25  C   UNL     1       3.026  -2.205   0.000  1.00  0.00     0.022 A 
ENDBRANCH  19  20
BRANCH  19  26
HETATM   26  C   UNL     1       3.828   1.681   0.000  1.00  0.00    -0.041 A 
HETATM   27  C   UNL     1       3.096   2.990   0.000  1.00  0.00     0.022 A 
HETATM   28  C   UNL     1       3.863   4.279   0.000  1.00  0.00     0.004 A 
HETATM   29  C   UNL     1       5.363   4.259   0.000  1.00  0.00     0.001 A 
HETATM   30  C   UNL     1       6.095   2.950   0.000  1.00  0.00     0.004 A 
HETATM   31  C   UNL     1       5.328   1.661   0.000  1.00  0.00     0.022 A 
ENDBRANCH  19  26
ENDBRANCH   1  19
TORSDOF 4
