REMARK  2 active torsions:
REMARK  status: ('A' for Active; 'I' for Inactive)
REMARK    1  A    between atoms: C_5  and  N_13 
REMARK    2  A    between atoms: C_7  and  C_11 
REMARK       I    between atoms: C_11  and  N_13 
ROOT
HETATM    1  C   UNL     1      -6.147  -0.750   0.000  1.00  0.00     0.052 A 
HETATM    2  C   UNL     1      -4.848  -1.500   0.000  1.00  0.00     0.064 A 
HETATM    3  C   UNL     1      -7.446  -1.500   0.000  1.00  0.00     0.048 A 
HETATM    4  C   UNL     1      -4.848  -3.000   0.000  1.00  0.00     0.027 A 
HETATM    5  C   UNL     1      -7.446  -3.000   0.000  1.00  0.00     0.044 A 
HETATM    6  C   UNL     1      -6.147  -3.750   0.000  1.00  0.00     0.076 A 
HETATM    7  N   UNL     1      -3.549  -0.750   0.000  1.00  0.00    -0.227 NA
HETATM    8  C   UNL     1      -2.250  -1.500   0.000  1.00  0.00     0.199 A 
HETATM    9  O   UNL     1      -0.951  -0.750   0.000  1.00  0.00    -0.173 OA
HETATM   10  C   UNL     1      -2.250  -3.000   0.000  1.00  0.00     0.106 A 
HETATM   11  C   UNL     1      -3.750  -3.000   0.000  1.00  0.00    -0.125 A 
HETATM   12  C   UNL     1      -2.250  -4.500   0.000  1.00  0.00     0.021 C 
HETATM   13  C   UNL     1      -0.750  -3.000   0.000  1.00  0.00     0.021 C 
ENDROOT
BRANCH   5  14
HETATM   14  N   UNL     1      -8.745  -3.750   0.000  1.00  0.00    -0.232 NA
HETATM   15  C   UNL     1     -10.044  -3.000   0.000  1.00  0.00     0.188 C 
HETATM   16  O   UNL     1     -10.044  -1.500   0.000  1.00  0.00    -0.174 OA
BRANCH  15  17
HETATM   17  C   UNL     1     -11.343  -3.750   0.000  1.00  0.00     0.060 C 
HETATM   18  C   UNL     1     -12.093  -2.451   0.000  1.00  0.00     0.008 C 
HETATM   19  C   UNL     1     -12.642  -4.500   0.000  1.00  0.00     0.008 C 
HETATM   20  C   UNL     1     -10.593  -5.049   0.000  1.00  0.00     0.008 C 
ENDBRANCH  15  17
ENDBRANCH   5  14
TORSDOF 2
