REMARK  0 active torsions:
REMARK  status: ('A' for Active; 'I' for Inactive)
ROOT
HETATM    1  S   UNL     1      -1.666   4.386   0.000  1.00  0.00    -0.039 SA
HETATM    2  N   UNL     1      -0.367   6.636   0.000  1.00  0.00    -0.239 NA
HETATM    3  N   UNL     1       0.932   4.386   0.000  1.00  0.00    -0.316 N 
HETATM    4  H   UNL     1       0.932   2.885   0.000  1.00  0.00     0.170 HD
HETATM    5  N   UNL     1       3.658   7.099   0.000  1.00  0.00    -0.331 N 
HETATM    6  H   UNL     1       4.121   8.526   0.000  1.00  0.00     0.168 HD
HETATM    7  N   UNL     1       3.658   4.672   0.000  1.00  0.00    -0.317 N 
HETATM    8  H   UNL     1       4.121   3.245   0.000  1.00  0.00     0.170 HD
HETATM    9  S   UNL     1       6.039   5.886   0.000  1.00  0.00    -0.040 SA
HETATM   10  C   UNL     1       0.932   7.386   0.000  1.00  0.00     0.174 A 
HETATM   11  C   UNL     1       2.231   6.636   0.000  1.00  0.00     0.093 A 
HETATM   12  C   UNL     1       2.231   5.136   0.000  1.00  0.00     0.135 A 
HETATM   13  C   UNL     1       4.539   5.886   0.000  1.00  0.00     0.177 A 
HETATM   14  C   UNL     1      -0.367   5.136   0.000  1.00  0.00     0.196 A 
ENDROOT
TORSDOF 0
