REMARK  2 active torsions:
REMARK  status: ('A' for Active; 'I' for Inactive)
REMARK    1  A    between atoms: C_4  and  N_7 
REMARK    2  A    between atoms: N_18  and  C_20 
ROOT
HETATM    1  N   UNL     1      -1.269   7.941   0.000  1.00  0.00    -0.112 NA
HETATM    2  N   UNL     1      -0.056   7.059   0.000  1.00  0.00    -0.248 N 
HETATM    3  C   UNL     1      -0.805   9.367   0.000  1.00  0.00     0.147 A 
HETATM    4  C   UNL     1       1.158   7.941   0.000  1.00  0.00     0.140 A 
HETATM    5  C   UNL     1       0.695   9.367   0.000  1.00  0.00     0.073 A 
HETATM    6  O   UNL     1       1.235  11.909   0.000  1.00  0.00    -0.171 OA
HETATM    7  N   UNL     1       2.625   7.629   0.000  1.00  0.00    -0.304 N 
HETATM    8  H   UNL     1       3.089   6.202   0.000  1.00  0.00     0.171 HD
HETATM    9  C   UNL     1       1.698  10.482   0.000  1.00  0.00     0.201 A 
HETATM   10  C   UNL     1       3.629   8.744   0.000  1.00  0.00     0.266 A 
HETATM   11  N   UNL     1       3.165  10.170   0.000  1.00  0.00    -0.258 N 
HETATM   12  O   UNL     1       5.096   8.432   0.000  1.00  0.00    -0.150 OA
ENDROOT
BRANCH   2  13
HETATM   13  C   UNL     1      -0.056   5.559   0.000  1.00  0.00     0.035 A 
HETATM   14  C   UNL     1      -1.355   4.809   0.000  1.00  0.00     0.046 A 
HETATM   15  C   UNL     1      -1.355   3.309   0.000  1.00  0.00     0.040 A 
HETATM   16  C   UNL     1      -0.056   2.559   0.000  1.00  0.00     0.014 A 
HETATM   17  C   UNL     1       1.244   3.309   0.000  1.00  0.00     0.040 A 
HETATM   18 CL   UNL     1      -0.056   1.059   0.000  1.00  0.00    -0.092 Cl
HETATM   19  C   UNL     1       1.244   4.809   0.000  1.00  0.00     0.046 A 
ENDBRANCH   2  13
BRANCH  11  20
HETATM   20  C   UNL     1       4.169  11.285   0.000  1.00  0.00     0.029 A 
HETATM   21  C   UNL     1       3.706  12.712   0.000  1.00  0.00     0.041 A 
HETATM   22  C   UNL     1       4.709  13.826   0.000  1.00  0.00     0.011 A 
HETATM   23  C   UNL     1       6.176  13.514   0.000  1.00  0.00     0.034 A 
HETATM   24  C   UNL     1       6.640  12.088   0.000  1.00  0.00     0.019 A 
HETATM   25  C   UNL     1       5.636  10.973   0.000  1.00  0.00     0.073 A 
HETATM   26 CL   UNL     1       8.107  11.776   0.000  1.00  0.00    -0.091 Cl
ENDBRANCH  11  20
TORSDOF 2
