REMARK  4 active torsions:
REMARK  status: ('A' for Active; 'I' for Inactive)
REMARK    1  A    between atoms: C_4  and  O_31 
REMARK    2  A    between atoms: N_16  and  C_19 
REMARK    3  A    between atoms: C_19  and  C_22 
REMARK    4  A    between atoms: S_29  and  O_31 
ROOT
HETATM    1  C   UNL     1     -12.043  -0.663   0.000  1.00  0.00     0.039 A 
HETATM    2  C   UNL     1     -11.293   0.636   0.000  1.00  0.00     0.052 A 
HETATM    3  C   UNL     1     -12.043   1.935   0.000  1.00  0.00     0.092 A 
HETATM    4  C   UNL     1     -11.293  -1.962   0.000  1.00  0.00     0.153 A 
HETATM    5  C   UNL     1      -9.793  -1.962   0.000  1.00  0.00    -0.022 A 
HETATM    6  C   UNL     1      -9.043  -0.663   0.000  1.00  0.00     0.023 A 
HETATM    7  C   UNL     1      -9.793   0.636   0.000  1.00  0.00     0.040 A 
HETATM    8  C   UNL     1      -9.405   2.085   0.000  1.00  0.00     0.149 A 
HETATM    9  O   UNL     1     -10.704   2.835   0.000  1.00  0.00    -0.333 OA
HETATM   10  C   UNL     1      -7.545  -0.584   0.000  1.00  0.00     0.009 A 
HETATM   11  C   UNL     1      -6.935   0.786   0.000  1.00  0.00     0.031 A 
HETATM   12  C   UNL     1      -7.879   1.952   0.000  1.00  0.00     0.152 A 
HETATM   13  C   UNL     1     -13.543  -0.663   0.000  1.00  0.00     0.010 A 
HETATM   14  C   UNL     1     -14.293   0.636   0.000  1.00  0.00     0.056 A 
HETATM   15  C   UNL     1     -13.543   1.935   0.000  1.00  0.00     0.127 A 
HETATM   16  N   UNL     1      -8.293  -1.962   0.000  1.00  0.00     0.000 N 
HETATM   17  C   UNL     1      -7.543  -0.663   0.000  1.00  0.00     0.005 A 
HETATM   18  C   UNL     1      -8.293   0.636   0.000  1.00  0.00     0.032 A 
HETATM   19  O   UNL     1      -7.175   3.276   0.000  1.00  0.00    -0.224 OA
HETATM   20  O   UNL     1     -14.293   3.235   0.000  1.00  0.00    -0.193 OA
HETATM   21  O   UNL     1     -10.543  -0.663   0.000  1.00  0.00     0.000 OA
ENDROOT
BRANCH  16  22
HETATM   22  C   UNL     1      -7.543  -3.261   0.000  1.00  0.00     0.003 C 
BRANCH  22  23
HETATM   23  C   UNL     1      -6.043  -3.261   0.000  1.00  0.00     0.032 A 
HETATM   24  C   UNL     1      -5.161  -4.474   0.000  1.00  0.00     0.142 A 
HETATM   25  O   UNL     1      -3.735  -4.011   0.000  1.00  0.00    -0.354 OA
HETATM   26  C   UNL     1      -3.735  -2.511   0.000  1.00  0.00     0.142 A 
HETATM   27  C   UNL     1      -5.161  -2.047   0.000  1.00  0.00     0.035 A 
ENDBRANCH  22  23
ENDBRANCH  16  22
BRANCH   4  28
HETATM   28  O   UNL     2     -11.665  -3.479   0.000  1.00  0.00    -0.254 OA
BRANCH  28  29
HETATM   29  S   UNL     2     -11.665  -4.979   0.000  1.00  0.00     0.281 S 
HETATM   30  C   UNL     2     -13.165  -4.979   0.000  1.00  0.00     0.171 C 
HETATM   31  O   UNL     2     -11.665  -6.479   0.000  1.00  0.00    -0.198 OA
HETATM   32  O   UNL     2     -10.165  -4.979   0.000  1.00  0.00    -0.198 OA
ENDBRANCH  28  29
ENDBRANCH   4  28
TORSDOF 4
