REMARK  1 active torsions:
REMARK  status: ('A' for Active; 'I' for Inactive)
REMARK    1  A    between atoms: C_16  and  N_17 
ROOT
HETATM    1  F   UNL     1      -5.587  -7.325   0.000  1.00  0.00    -0.213 F 
HETATM    2  C   UNL     1      -4.287  -8.075   0.000  1.00  0.00     0.106 A 
HETATM    3  C   UNL     1      -4.287  -9.575   0.000  1.00  0.00     0.110 A 
HETATM    4  C   UNL     1      -2.989  -7.325   0.000  1.00  0.00     0.080 A 
HETATM    5  C   UNL     1      -2.989 -10.325   0.000  1.00  0.00     0.139 A 
HETATM    6  F   UNL     1      -2.989 -11.825   0.000  1.00  0.00    -0.207 F 
HETATM    7  C   UNL     1      -1.689  -8.075   0.000  1.00  0.00    -0.001 A 
HETATM    8  C   UNL     1      -1.689  -9.575   0.000  1.00  0.00     0.076 A 
HETATM    9  N   UNL     1      -0.263 -10.039   0.000  1.00  0.00    -0.356 N 
HETATM   10  H   UNL     1       0.201 -11.466   0.000  1.00  0.00     0.166 HD
HETATM   11  C   UNL     1       0.619  -8.825   0.000  1.00  0.00     0.030 A 
HETATM   12  C   UNL     1      -0.263  -7.612   0.000  1.00  0.00    -0.007 A 
HETATM   13  C   UNL     1       0.347  -6.242   0.000  1.00  0.00     0.066 A 
HETATM   14  C   UNL     1       2.111  -8.669   0.000  1.00  0.00     0.049 A 
HETATM   15  C   UNL     1       2.721  -7.298   0.000  1.00  0.00     0.045 A 
HETATM   16  C   UNL     1       1.839  -6.085   0.000  1.00  0.00     0.015 A 
ENDROOT
BRANCH  16  17
HETATM   17  N   UNL     1       2.449  -4.714   0.000  1.00  0.00    -0.351 N 
HETATM   18  C   UNL     1       3.941  -4.558   0.000  1.00  0.00     0.125 C 
HETATM   19  C   UNL     1       1.567  -3.501   0.000  1.00  0.00     0.125 C 
ENDBRANCH  16  17
TORSDOF 1
