REMARK  0 active torsions:
REMARK  status: ('A' for Active; 'I' for Inactive)
ROOT
HETATM    1  C   UNL     1      -0.772   9.086   0.000  1.00  0.00     0.304 A 
HETATM    2  O   UNL     1      -1.382   7.715   0.000  1.00  0.00    -0.304 OA
HETATM    3  O   UNL     1       0.720   8.929   0.000  1.00  0.00    -0.300 OA
HETATM    4  C   UNL     1      -0.268   6.712   0.000  1.00  0.00     0.102 A 
HETATM    5  C   UNL     1       1.032   7.462   0.000  1.00  0.00     0.115 A 
HETATM    6  C   UNL     1      -0.268   5.212   0.000  1.00  0.00     0.086 A 
HETATM    7  C   UNL     1       2.330   6.712   0.000  1.00  0.00     0.025 A 
HETATM    8  C   UNL     1       1.032   4.462   0.000  1.00  0.00     0.023 A 
HETATM    9  C   UNL     1       2.330   5.212   0.000  1.00  0.00     0.048 A 
HETATM   10  C   UNL     1       3.630   4.462   0.000  1.00  0.00     0.213 A 
HETATM   11  O   UNL     1       3.630   2.962   0.000  1.00  0.00    -0.169 OA
HETATM   12 BR   UNL     1       1.032   2.962   0.000  1.00  0.00    -0.053 Br
HETATM   13  C   UNL     1       3.630   7.462   0.000  1.00  0.00    -0.002 A 
HETATM   14  C   UNL     1       3.630   8.961   0.000  1.00  0.00     0.032 A 
HETATM   15  C   UNL     1       4.929   9.711   0.000  1.00  0.00     0.026 A 
HETATM   16  C   UNL     1       4.929   6.712   0.000  1.00  0.00     0.075 A 
HETATM   17  C   UNL     1       6.228   8.961   0.000  1.00  0.00    -0.046 A 
HETATM   18  C   UNL     1       6.228   7.462   0.000  1.00  0.00    -0.013 A 
HETATM   19  C   UNL     1       7.527   9.711   0.000  1.00  0.00     0.022 A 
HETATM   20  C   UNL     1       7.527   6.712   0.000  1.00  0.00     0.027 A 
HETATM   21  C   UNL     1       8.826   8.961   0.000  1.00  0.00     0.005 A 
HETATM   22  C   UNL     1       8.826   7.462   0.000  1.00  0.00     0.005 A 
HETATM   23  N   UNL     1       4.929   5.212   0.000  1.00  0.00    -0.221 NA
ENDROOT
TORSDOF 0
