REMARK  5 active torsions:
REMARK  status: ('A' for Active; 'I' for Inactive)
REMARK    1  A    between atoms: C_5  and  O_9 
REMARK    2  A    between atoms: C_5  and  C_6 
REMARK    3  A    between atoms: C_8  and  C_12 
REMARK    4  A    between atoms: O_9  and  C_13 
REMARK    5  A    between atoms: C_11  and  C_12 
REMARK       I    between atoms: C_11  and  N_15 
ROOT
HETATM    1  C   UNL     1      -2.653   0.079   0.000  1.00  0.00     0.056 A 
HETATM    2  C   UNL     1      -2.612  -1.420   0.000  1.00  0.00     0.102 A 
HETATM    3  N   UNL     1      -1.174  -1.845   0.000  1.00  0.00    -0.376 N 
HETATM    4  H   UNL     1      -0.672  -3.259   0.000  1.00  0.00     0.160 HD
HETATM    5  C   UNL     1      -1.239   0.581   0.000  1.00  0.00     0.040 A 
HETATM    6  C   UNL     1      -0.325  -0.608   0.000  1.00  0.00     0.038 A 
ENDROOT
BRANCH   5   7
HETATM    7  C   UNL     1      -0.814   2.020   0.000  1.00  0.00     0.225 C 
HETATM    8  O   UNL     1       0.644   2.371   0.000  1.00  0.00    -0.164 OA
BRANCH   7   9
HETATM    9  O   UNL     1      -1.848   3.107   0.000  1.00  0.00    -0.309 OA
BRANCH   9  10
HETATM   10  C   UNL     1      -1.423   4.545   0.000  1.00  0.00     0.151 C 
HETATM   11  C   UNL     1       0.035   4.897   0.000  1.00  0.00     0.035 C 
ENDBRANCH   9  10
ENDBRANCH   7   9
ENDBRANCH   5   7
BRANCH   6  12
HETATM   12  C   UNL     1       1.174  -0.568   0.000  1.00  0.00     0.117 C 
BRANCH  12  13
HETATM   13  C   UNL     1       1.959  -1.846   0.000  1.00  0.00     0.191 C 
HETATM   14  O   UNL     1       1.245  -3.165   0.000  1.00  0.00    -0.174 OA
HETATM   15  N   UNL     1       3.459  -1.805   0.000  1.00  0.00    -0.247 NA
HETATM   16  C   UNL     1       4.244  -3.084   0.000  1.00  0.00     0.154 C 
ENDBRANCH  12  13
ENDBRANCH   6  12
TORSDOF 5
