REMARK  2 active torsions:
REMARK  status: ('A' for Active; 'I' for Inactive)
REMARK    1  A    between atoms: C_4  and  C_6 
REMARK    2  A    between atoms: C_16  and  C_18 
ROOT
HETATM    1  C   UNL     1       3.086   2.985   0.000  1.00  0.00     0.132 A 
HETATM    2  C   UNL     1       3.968   1.772   0.000  1.00  0.00     0.025 A 
HETATM    3  C   UNL     1       3.696   4.355   0.000  1.00  0.00     0.065 A 
HETATM    4  C   UNL     1       5.460   1.928   0.000  1.00  0.00     0.114 A 
HETATM    5  C   UNL     1       5.188   4.512   0.000  1.00  0.00     0.083 A 
HETATM    6  C   UNL     1       6.070   3.299   0.000  1.00  0.00     0.114 A 
HETATM    7  O   UNL     1       6.070   5.726   0.000  1.00  0.00    -0.336 OA
HETATM    8  C   UNL     1       7.497   3.762   0.000  1.00  0.00     0.094 A 
HETATM    9  C   UNL     1       7.497   5.262   0.000  1.00  0.00     0.133 A 
HETATM   10  C   UNL     1       8.796   6.012   0.000  1.00  0.00     0.084 A 
HETATM   11  C   UNL     1       8.796   3.012   0.000  1.00  0.00     0.142 A 
HETATM   12  O   UNL     1       8.796   1.512   0.000  1.00  0.00    -0.354 OA
HETATM   13  C   UNL     1      10.095   5.262   0.000  1.00  0.00     0.110 A 
HETATM   14  C   UNL     1      10.095   3.762   0.000  1.00  0.00     0.035 A 
HETATM   15  O   UNL     1      11.394   6.012   0.000  1.00  0.00    -0.195 OA
HETATM   16  O   UNL     1       1.595   2.828   0.000  1.00  0.00    -0.190 OA
HETATM   17  C   UNL     1       3.358   0.401   0.000  1.00  0.00     0.035 C 
HETATM   18  O   UNL     1       6.341   0.715   0.000  1.00  0.00    -0.195 OA
HETATM   19  C   UNL     1       7.340   2.270   0.000  1.00  0.00     0.136 A 
ENDROOT
BRANCH   3  20
HETATM   20  C   UNL     1       2.815   5.569   0.000  1.00  0.00     0.113 C 
HETATM   21  O   UNL     1       1.323   5.412   0.000  1.00  0.00    -0.195 OA
HETATM   22  C   UNL     1       3.425   6.939   0.000  1.00  0.00     0.061 C 
ENDBRANCH   3  20
BRANCH  14  23
HETATM   23  C   UNL     1      11.394   3.012   0.000  1.00  0.00     0.048 C 
HETATM   24  C   UNL     1      11.394   1.512   0.000  1.00  0.00     0.046 C 
HETATM   25  N   UNL     1      12.693   3.762   0.000  1.00  0.00    -0.105 NA
ENDBRANCH  14  23
TORSDOF 2
