REMARK  0 active torsions:
REMARK  status: ('A' for Active; 'I' for Inactive)
ROOT
HETATM    1  C   UNL     1      -0.870   5.035   0.000  1.00  0.00     0.007 A 
HETATM    2  C   UNL     1      -0.870   3.535   0.000  1.00  0.00     0.007 A 
HETATM    3  C   UNL     1       0.429   5.785   0.000  1.00  0.00     0.053 A 
HETATM    4  C   UNL     1       0.429   2.785   0.000  1.00  0.00     0.048 A 
HETATM    5  C   UNL     1       1.728   5.035   0.000  1.00  0.00     0.091 A 
HETATM    6  C   UNL     1       1.728   3.535   0.000  1.00  0.00     0.078 A 
HETATM    7  N   UNL     1       2.901   2.600   0.000  1.00  0.00    -0.247 NA
HETATM    8  O   UNL     1       2.901   5.970   0.000  1.00  0.00    -0.315 OA
HETATM    9  C   UNL     1       4.363   2.934   0.000  1.00  0.00     0.096 A 
HETATM   10  C   UNL     1       5.014   4.285   0.000  1.00  0.00     0.016 A 
HETATM   11  C   UNL     1       4.363   5.637   0.000  1.00  0.00     0.075 A 
HETATM   12  C   UNL     1       6.510   4.173   0.000  1.00  0.00     0.030 A 
HETATM   13  C   UNL     1       5.208   6.876   0.000  1.00  0.00     0.051 A 
HETATM   14  C   UNL     1       6.704   6.764   0.000  1.00  0.00     0.007 A 
HETATM   15  C   UNL     1       7.355   5.412   0.000  1.00  0.00     0.005 A 
HETATM   16  C   UNL     1       7.549   8.003   0.000  1.00  0.00     0.000 C 
ENDROOT
TORSDOF 0
