REMARK  3 active torsions:
REMARK  status: ('A' for Active; 'I' for Inactive)
REMARK    1  A    between atoms: S_9  and  N_10 
REMARK    2  A    between atoms: N_21  and  C_23 
REMARK    3  A    between atoms: C_23  and  C_24 
ROOT
HETATM    1  N   UNL     1      -6.822  -4.805   0.000  1.00  0.00    -0.290 NA
HETATM    2  C   UNL     1      -5.523  -4.055   0.000  1.00  0.00     0.127 A 
HETATM    3  C   UNL     1      -6.822  -6.305   0.000  1.00  0.00     0.159 A 
HETATM    4  O   UNL     1      -7.023  -8.555   0.000  1.00  0.00    -0.216 OA
HETATM    5  C   UNL     1      -5.523  -7.055   0.000  1.00  0.00     0.103 A 
HETATM    6  C   UNL     1      -4.224  -4.805   0.000  1.00  0.00     0.070 A 
HETATM    7  S   UNL     1      -5.523  -8.555   0.000  1.00  0.00     0.185 S 
HETATM    8  C   UNL     1      -4.224  -6.305   0.000  1.00  0.00     0.050 A 
HETATM    9  O   UNL     1      -4.023  -8.555   0.000  1.00  0.00    -0.228 OA
HETATM   10  N   UNL     1      -2.925  -7.055   0.000  1.00  0.00    -0.311 N 
HETATM   11  C   UNL     1      -2.925  -8.555   0.000  1.00  0.00     0.174 A 
HETATM   12  C   UNL     1      -1.626  -6.305   0.000  1.00  0.00     0.131 A 
HETATM   13  C   UNL     1      -0.327  -7.055   0.000  1.00  0.00     0.122 A 
HETATM   14  C   UNL     1      -1.626  -9.305   0.000  1.00  0.00     0.169 A 
HETATM   15  N   UNL     1      -0.327  -8.555   0.000  1.00  0.00    -0.360 N 
ENDROOT
BRANCH   7  16
HETATM   16  N   UNL     1      -5.523 -10.055   0.000  1.00  0.00    -0.282 N 
HETATM   17  C   UNL     1      -6.822 -10.805   0.000  1.00  0.00     0.136 A 
HETATM   18  C   UNL     1      -6.822 -12.305   0.000  1.00  0.00     0.122 A 
HETATM   19  N   UNL     1      -5.523 -13.055   0.000  1.00  0.00    -0.364 N 
HETATM   20  C   UNL     1      -4.224 -12.305   0.000  1.00  0.00     0.122 A 
HETATM   21  C   UNL     1      -5.523 -14.555   0.000  1.00  0.00     0.121 C 
HETATM   22  C   UNL     1      -4.224 -10.805   0.000  1.00  0.00     0.136 A 
ENDBRANCH   7  16
BRANCH  15  23
HETATM   23  C   UNL     1       0.972  -9.305   0.000  1.00  0.00     0.097 C 
BRANCH  23  24
HETATM   24  C   UNL     1       2.272  -8.555   0.000  1.00  0.00     0.024 C 
HETATM   25  C   UNL     1       2.272  -7.055   0.000  1.00  0.00     0.002 C 
ENDBRANCH  23  24
ENDBRANCH  15  23
TORSDOF 3
