REMARK  4 active torsions:
REMARK  status: ('A' for Active; 'I' for Inactive)
REMARK    1  A    between atoms: C_4  and  N_16 
REMARK    2  A    between atoms: C_6  and  N_9 
REMARK    3  A    between atoms: N_14  and  C_19 
REMARK    4  A    between atoms: C_19  and  C_20 
ROOT
HETATM    1  C   UNL     1       3.277   1.578   0.000  1.00  0.00     0.109 A 
HETATM    2  C   UNL     1       2.527   2.877   0.000  1.00  0.00     0.025 A 
HETATM    3  N   UNL     1       4.777   1.578   0.000  1.00  0.00    -0.296 N 
HETATM    4  C   UNL     1       5.781   0.463   0.000  1.00  0.00     0.224 A 
HETATM    5  C   UNL     1       3.277   4.176   0.000  1.00  0.00     0.010 A 
HETATM    6  C   UNL     1       7.151   1.073   0.000  1.00  0.00     0.180 A 
HETATM    7  C   UNL     1       5.527   2.877   0.000  1.00  0.00     0.123 A 
HETATM    8  C   UNL     1       4.777   4.176   0.000  1.00  0.00     0.064 A 
HETATM    9  N   UNL     1       6.994   2.565   0.000  1.00  0.00    -0.212 NA
ENDROOT
BRANCH   6  10
HETATM   10  N   UNL     1       8.450   0.323   0.000  1.00  0.00    -0.327 N 
HETATM   11  C   UNL     1       9.749   1.073   0.000  1.00  0.00     0.127 A 
HETATM   12  C   UNL     1      11.048   0.323   0.000  1.00  0.00     0.122 A 
HETATM   13  N   UNL     1      11.048  -1.177   0.000  1.00  0.00    -0.363 N 
HETATM   14  C   UNL     1       9.749  -1.927   0.000  1.00  0.00     0.122 A 
HETATM   15  C   UNL     1       8.450  -1.177   0.000  1.00  0.00     0.127 A 
BRANCH  13  16
HETATM   16  C   UNL     1      12.347  -1.927   0.000  1.00  0.00     0.133 C 
BRANCH  16  17
HETATM   17  C   UNL     1      13.646  -1.177   0.000  1.00  0.00     0.206 C 
HETATM   18  O   UNL     1      14.945  -1.927   0.000  1.00  0.00    -0.219 OA
ENDBRANCH  16  17
ENDBRANCH  13  16
ENDBRANCH   6  10
BRANCH   4  19
HETATM   19  N   UNL     1       5.469  -1.004   0.000  1.00  0.00    -0.093 N 
HETATM   20  O   UNL     1       4.042  -1.468   0.000  1.00  0.00    -0.530 OA
HETATM   21  O   UNL     1       6.583  -2.008   0.000  1.00  0.00    -0.530 OA
ENDBRANCH   4  19
TORSDOF 4
