REMARK  1 active torsions:
REMARK  status: ('A' for Active; 'I' for Inactive)
REMARK    1  A    between atoms: C_14  and  N_19 
ROOT
HETATM    1  C   UNL     1      -3.597   2.092   0.000  1.00  0.00     0.109 A 
HETATM    2  C   UNL     1      -3.934   3.553   0.000  1.00  0.00     0.025 A 
HETATM    3  N   UNL     1      -2.162   1.653   0.000  1.00  0.00    -0.297 N 
HETATM    4  C   UNL     1      -1.528   0.293   0.000  1.00  0.00     0.213 A 
HETATM    5  C   UNL     1      -2.837   4.576   0.000  1.00  0.00     0.010 A 
HETATM    6  C   UNL     1      -1.065   2.676   0.000  1.00  0.00     0.123 A 
HETATM    7  C   UNL     1      -1.402   4.137   0.000  1.00  0.00     0.064 A 
HETATM    8  C   UNL     1      -0.040   0.476   0.000  1.00  0.00     0.184 A 
HETATM    9  N   UNL     1       0.983  -0.621   0.000  1.00  0.00    -0.286 N 
HETATM   10  C   UNL     1       0.697  -2.094   0.000  1.00  0.00     0.174 A 
HETATM   11  N   UNL     1       0.247   1.948   0.000  1.00  0.00    -0.212 NA
HETATM   12  C   UNL     1       2.472  -0.438   0.000  1.00  0.00     0.179 A 
HETATM   13  N   UNL     1       2.009  -2.821   0.000  1.00  0.00    -0.206 NA
HETATM   14  C   UNL     1       3.106  -1.798   0.000  1.00  0.00     0.209 A 
HETATM   15  N   UNL     1      -2.256  -1.018   0.000  1.00  0.00    -0.064 N 
HETATM   16  O   UNL     1      -3.756  -1.044   0.000  1.00  0.00    -0.055 OA
HETATM   17  O   UNL     1      -1.483  -2.304   0.000  1.00  0.00    -0.199 OA
HETATM   18  C   UNL     1      -0.662  -2.727   0.000  1.00  0.00     0.187 A 
ENDROOT
BRANCH  14  19
HETATM   19  N   UNL     1       4.578  -2.084   0.000  1.00  0.00    -0.097 N 
HETATM   20  O   UNL     1       5.563  -0.952   0.000  1.00  0.00    -0.531 OA
HETATM   21  O   UNL     1       5.067  -3.503   0.000  1.00  0.00    -0.531 OA
ENDBRANCH  14  19
TORSDOF 1
