REMARK  1 active torsions:
REMARK  status: ('A' for Active; 'I' for Inactive)
REMARK    1  A    between atoms: C_5  and  N_11 
ROOT
HETATM    1 CL   UNL     1       2.977   0.853   0.000  1.00  0.00    -0.090 Cl
HETATM    2  C   UNL     1       4.276  -1.397   0.000  1.00  0.00     0.143 A 
HETATM    3  C   UNL     1       4.276   0.103   0.000  1.00  0.00     0.036 A 
HETATM    4  N   UNL     1       5.575  -2.147   0.000  1.00  0.00    -0.293 N 
HETATM    5  C   UNL     1       5.887  -3.614   0.000  1.00  0.00     0.204 A 
HETATM    6  C   UNL     1       5.575   0.853   0.000  1.00  0.00     0.043 A 
HETATM    7  C   UNL     1       6.874  -1.397   0.000  1.00  0.00     0.122 A 
HETATM    8  C   UNL     1       6.874   0.103   0.000  1.00  0.00     0.069 A 
HETATM    9  C   UNL     1       7.379  -3.771   0.000  1.00  0.00     0.099 A 
HETATM   10  N   UNL     1       7.989  -2.401   0.000  1.00  0.00    -0.234 NA
HETATM   11  C   UNL     1       8.129  -5.070   0.000  1.00  0.00     0.056 C 
ENDROOT
BRANCH   5  12
HETATM   12  N   UNL     1       4.883  -4.729   0.000  1.00  0.00    -0.095 N 
HETATM   13  O   UNL     1       3.416  -4.417   0.000  1.00  0.00    -0.530 OA
HETATM   14  O   UNL     1       5.347  -6.156   0.000  1.00  0.00    -0.530 OA
ENDBRANCH   5  12
TORSDOF 1
