REMARK  2 active torsions:
REMARK  status: ('A' for Active; 'I' for Inactive)
REMARK    1  A    between atoms: C_8  and  C_12 
REMARK    2  A    between atoms: C_12  and  C_14 
ROOT
HETATM    1  N   UNL     1       2.893  -1.595   0.000  1.00  0.00    -0.177 NA
HETATM    2  H   UNL     1       3.311  -4.235   0.000  1.00  0.00     0.189 HD
HETATM    3  C   UNL     1       3.774  -0.381   0.000  1.00  0.00     0.081 A 
HETATM    4  N   UNL     1       3.774  -2.808   0.000  1.00  0.00    -0.275 N 
HETATM    5  C   UNL     1       5.201  -0.845   0.000  1.00  0.00     0.049 A 
HETATM    6  C   UNL     1       5.201  -2.345   0.000  1.00  0.00     0.091 A 
HETATM    7  C   UNL     1       6.500  -0.095   0.000  1.00  0.00     0.084 A 
HETATM    8  C   UNL     1       6.500  -3.095   0.000  1.00  0.00     0.098 A 
HETATM    9  N   UNL     1       7.799  -0.845   0.000  1.00  0.00    -0.153 NA
HETATM   10  N   UNL     1       7.799  -2.345   0.000  1.00  0.00    -0.151 NA
HETATM   11  C   UNL     1       3.311   1.046   0.000  1.00  0.00     0.054 C 
HETATM   12  C   UNL     1       6.500   1.405   0.000  1.00  0.00     0.054 C 
ENDROOT
BRANCH   8  13
HETATM   13  C   UNL     1       6.500  -4.595   0.000  1.00  0.00     0.049 C 
BRANCH  13  14
HETATM   14  C   UNL     1       7.799  -5.345   0.000  1.00  0.00     0.006 A 
HETATM   15  C   UNL     1       9.098  -4.595   0.000  1.00  0.00     0.000 A 
HETATM   16  C   UNL     1      10.397  -5.345   0.000  1.00  0.00     0.000 A 
HETATM   17  C   UNL     1      10.397  -6.845   0.000  1.00  0.00     0.000 A 
HETATM   18  C   UNL     1       9.098  -7.595   0.000  1.00  0.00     0.000 A 
HETATM   19  C   UNL     1       7.799  -6.845   0.000  1.00  0.00     0.000 A 
ENDBRANCH  13  14
ENDBRANCH   8  13
TORSDOF 2
