REMARK  1 active torsions:
REMARK  status: ('A' for Active; 'I' for Inactive)
REMARK    1  A    between atoms: C_1  and  C_9 
ROOT
HETATM    1  C   UNL     1      -3.190   7.380   0.000  1.00  0.00     0.201 A 
HETATM    2  O   UNL     1      -1.704   7.588   0.000  1.00  0.00    -0.194 OA
HETATM    3  C   UNL     1      -2.637   4.985   0.000  1.00  0.00     0.240 A 
HETATM    4  N   UNL     1      -1.210   5.449   0.000  1.00  0.00    -0.205 N 
HETATM    5  C   UNL     1       0.003   4.567   0.000  1.00  0.00     0.047 A 
HETATM    6  N   UNL     1      -0.747   6.875   0.000  1.00  0.00    -0.151 N 
HETATM    7  C   UNL     1       1.217   5.449   0.000  1.00  0.00     0.085 A 
HETATM    8  C   UNL     1       0.753   6.875   0.000  1.00  0.00     0.068 A 
HETATM    9  N   UNL     1      -3.752   5.989   0.000  1.00  0.00    -0.189 NA
HETATM   10  N   UNL     1      -2.949   3.518   0.000  1.00  0.00    -0.059 NA
HETATM   11  C   UNL     1       0.003   3.067   0.000  1.00  0.00     0.048 C 
HETATM   12  C   UNL     1       1.635   8.089   0.000  1.00  0.00     0.050 C 
ENDROOT
BRANCH   1  13
HETATM   13  C   UNL     1      -4.113   8.562   0.000  1.00  0.00    -0.001 A 
HETATM   14  C   UNL     1      -3.551   9.953   0.000  1.00  0.00     0.026 A 
HETATM   15  C   UNL     1      -4.475  11.134   0.000  1.00  0.00     0.004 A 
HETATM   16  C   UNL     1      -5.960  10.926   0.000  1.00  0.00     0.001 A 
HETATM   17  C   UNL     1      -6.522   9.535   0.000  1.00  0.00     0.004 A 
HETATM   18  C   UNL     1      -5.599   8.353   0.000  1.00  0.00     0.026 A 
ENDBRANCH   1  13
TORSDOF 1
