REMARK  1 active torsions:
REMARK  status: ('A' for Active; 'I' for Inactive)
REMARK    1  A    between atoms: C_5  and  C_7 
REMARK       I    between atoms: C_7  and  N_9 
ROOT
HETATM    1  S   UNL     1     -10.390   0.961   0.000  1.00  0.00    -0.177 SA
HETATM    2  C   UNL     1      -9.020   0.351   0.000  1.00  0.00     0.161 A 
HETATM    3  N   UNL     1      -7.721   1.101   0.000  1.00  0.00    -0.240 NA
HETATM    4  S   UNL     1      -8.708  -1.116   0.000  1.00  0.00    -0.077 SA
HETATM    5  C   UNL     1      -7.216  -1.273   0.000  1.00  0.00     0.100 A 
HETATM    6  C   UNL     1      -6.606   0.097   0.000  1.00  0.00     0.157 A 
HETATM    7  C   UNL     1      -8.963   4.165   0.000  1.00  0.00     0.010 A 
HETATM    8  C   UNL     1      -8.807   2.673   0.000  1.00  0.00     0.014 A 
HETATM    9  C   UNL     1     -10.020   1.792   0.000  1.00  0.00     0.067 A 
HETATM   10  C   UNL     1     -11.391   2.402   0.000  1.00  0.00     0.045 A 
HETATM   11  C   UNL     1     -11.547   3.894   0.000  1.00  0.00     0.018 A 
HETATM   12  C   UNL     1     -10.334   4.775   0.000  1.00  0.00     0.002 A 
HETATM   13  C   UNL     1     -10.602   2.975   0.000  1.00  0.00     0.039 A 
HETATM   14  N   UNL     1      -5.139   0.409   0.000  1.00  0.00    -0.079 NA
ENDROOT
BRANCH   5  15
HETATM   15  C   UNL     1      -6.466  -2.572   0.000  1.00  0.00     0.199 C 
HETATM   16  N   UNL     1      -4.966  -2.572   0.000  1.00  0.00    -0.327 N 
HETATM   17  C   UNL     1      -4.216  -1.273   0.000  1.00  0.00     0.103 A 
HETATM   18  C   UNL     1      -4.216  -3.871   0.000  1.00  0.00     0.103 A 
HETATM   19  C   UNL     1      -2.716  -1.273   0.000  1.00  0.00     0.024 A 
HETATM   20  C   UNL     1      -1.966  -2.572   0.000  1.00  0.00     0.004 A 
HETATM   21  C   UNL     1      -2.716  -3.871   0.000  1.00  0.00     0.024 A 
HETATM   22  O   UNL     1      -7.216  -3.871   0.000  1.00  0.00    -0.171 OA
ENDBRANCH   5  15
TORSDOF 1
