REMARK  2 active torsions:
REMARK  status: ('A' for Active; 'I' for Inactive)
REMARK    1  A    between atoms: S_1  and  C_2 
REMARK    2  A    between atoms: C_14  and  N_18 
ROOT
HETATM    1  C   UNL     1       5.366   3.031   0.000  1.00  0.00     0.132 A 
HETATM    2  N   UNL     1       4.067   3.781   0.000  1.00  0.00    -0.218 NA
HETATM    3  S   UNL     1       5.054   1.564   0.000  1.00  0.00    -0.085 SA
HETATM    4  C   UNL     1       3.563   1.407   0.000  1.00  0.00     0.101 A 
HETATM    5  C   UNL     1       2.953   2.778   0.000  1.00  0.00     0.161 A 
HETATM    6  C   UNL     1       2.813   0.108   0.000  1.00  0.00     0.221 A 
HETATM    7  O   UNL     1       1.313   0.108   0.000  1.00  0.00    -0.169 OA
HETATM    8  C   UNL     1       5.063  -1.191   0.000  1.00  0.00     0.064 A 
HETATM    9  C   UNL     1       5.813   0.108   0.000  1.00  0.00     0.023 A 
HETATM   10  C   UNL     1       5.813  -2.490   0.000  1.00  0.00     0.052 A 
HETATM   11  C   UNL     1       7.313   0.108   0.000  1.00  0.00     0.079 A 
HETATM   12  C   UNL     1       7.313  -2.490   0.000  1.00  0.00     0.052 A 
HETATM   13  C   UNL     1       8.063  -1.191   0.000  1.00  0.00     0.087 A 
HETATM   14  N   UNL     1       1.485   3.089   0.000  1.00  0.00    -0.079 NA
HETATM   15  N   UNL     1       3.563  -1.191   0.000  1.00  0.00    -0.224 NA
ENDROOT
BRANCH  13  16
HETATM   16  N   UNL     1       9.563  -1.191   0.000  1.00  0.00    -0.122 N 
HETATM   17  O   UNL     1      10.313   0.108   0.000  1.00  0.00    -0.532 OA
HETATM   18  O   UNL     1      10.313  -2.490   0.000  1.00  0.00    -0.532 OA
ENDBRANCH  13  16
BRANCH   1  19
HETATM   19  S   UNL     1       6.737   3.641   0.000  1.00  0.00    -0.088 SA
HETATM   20  C   UNL     1       6.893   5.133   0.000  1.00  0.00     0.076 C 
ENDBRANCH   1  19
TORSDOF 2
