REMARK  2 active torsions:
REMARK  status: ('A' for Active; 'I' for Inactive)
REMARK    1  A    between atoms: C_4  and  N_8 
REMARK       I    between atoms: N_8  and  C_9 
REMARK       I    between atoms: C_9  and  N_11 
REMARK    2  A    between atoms: N_11  and  C_12 
ROOT
HETATM    1 CL   UNL     1      -7.245  -5.250   0.000  1.00  0.00    -0.091 Cl
HETATM    2  C   UNL     1      -7.245  -0.750   0.000  1.00  0.00     0.042 A 
HETATM    3  C   UNL     1      -8.544  -1.500   0.000  1.00  0.00     0.011 A 
HETATM    4  C   UNL     1      -5.946  -1.500   0.000  1.00  0.00     0.045 A 
HETATM    5  C   UNL     1      -5.946  -3.000   0.000  1.00  0.00     0.075 A 
HETATM    6  C   UNL     1      -8.544  -3.000   0.000  1.00  0.00     0.034 A 
HETATM    7  C   UNL     1      -7.245  -3.750   0.000  1.00  0.00     0.019 A 
ENDROOT
BRANCH   4   8
HETATM    8  N   UNL     1      -4.647  -0.750   0.000  1.00  0.00    -0.212 NA
HETATM    9  C   UNL     1      -3.348  -1.500   0.000  1.00  0.00     0.299 C 
HETATM   10  O   UNL     1      -2.049  -0.750   0.000  1.00  0.00    -0.147 OA
HETATM   11  N   UNL     1      -3.348  -3.000   0.000  1.00  0.00    -0.212 NA
BRANCH  11  12
HETATM   12  C   UNL     1      -2.049  -3.750   0.000  1.00  0.00     0.041 C 
HETATM   13  C   UNL     1      -0.750  -3.000   0.000  1.00  0.00     0.047 C 
HETATM   14  C   UNL     1      -2.049  -5.250   0.000  1.00  0.00     0.047 C 
ENDBRANCH  11  12
ENDBRANCH   4   8
TORSDOF 2
