REMARK  1 active torsions:
REMARK  status: ('A' for Active; 'I' for Inactive)
REMARK    1  A    between atoms: S_1  and  C_3 
ROOT
HETATM    1  N   UNL     1       5.444   0.514   0.000  1.00  0.00    -0.218 NA
HETATM    2  C   UNL     1       6.744  -0.236   0.000  1.00  0.00     0.132 A 
HETATM    3  S   UNL     1       6.432  -1.703   0.000  1.00  0.00    -0.085 SA
HETATM    4  C   UNL     1       4.940  -1.860   0.000  1.00  0.00     0.101 A 
HETATM    5  C   UNL     1       4.330  -0.490   0.000  1.00  0.00     0.161 A 
HETATM    6  C   UNL     1       4.190  -3.159   0.000  1.00  0.00     0.221 A 
HETATM    7  O   UNL     1       2.690  -3.159   0.000  1.00  0.00    -0.169 OA
HETATM    8  C   UNL     1       6.440  -4.458   0.000  1.00  0.00     0.063 A 
HETATM    9  C   UNL     1       7.190  -3.159   0.000  1.00  0.00     0.018 A 
HETATM   10  C   UNL     1       7.190  -5.757   0.000  1.00  0.00     0.046 A 
HETATM   11  C   UNL     1       8.690  -5.757   0.000  1.00  0.00     0.007 A 
HETATM   12  C   UNL     1       8.690  -3.159   0.000  1.00  0.00     0.034 A 
HETATM   13  C   UNL     1       9.440  -4.458   0.000  1.00  0.00     0.006 A 
HETATM   14  N   UNL     1       2.863  -0.178   0.000  1.00  0.00    -0.079 NA
HETATM   15  N   UNL     1       4.940  -4.458   0.000  1.00  0.00    -0.224 NA
ENDROOT
BRANCH   2  16
HETATM   16  S   UNL     1       8.114   0.374   0.000  1.00  0.00    -0.088 SA
HETATM   17  C   UNL     1       8.271   1.866   0.000  1.00  0.00     0.076 C 
ENDBRANCH   2  16
TORSDOF 1
