REMARK  7 active torsions:
REMARK  status: ('A' for Active; 'I' for Inactive)
REMARK    1  A    between atoms: C_3  and  C_21 
REMARK    2  A    between atoms: C_4  and  C_5 
REMARK    3  A    between atoms: C_10  and  N_24 
REMARK    4  A    between atoms: C_11  and  N_25 
REMARK    5  A    between atoms: C_14  and  C_15 
REMARK    6  A    between atoms: C_19  and  C_26 
REMARK    7  A    between atoms: N_24  and  N_25 
ROOT
HETATM    1  N   UNL     1      -9.968  -2.310   0.000  1.00  0.00     0.049 NA
ENDROOT
BRANCH   1   2
HETATM    2  C   UNL     1     -11.377  -2.823   0.000  1.00  0.00     0.767 A 
HETATM    3  N   UNL     1     -12.526  -1.859   0.000  1.00  0.00    -0.062 NA
HETATM    4  C   UNL     1     -13.936  -2.372   0.000  1.00  0.00     0.076 A 
HETATM    5  C   UNL     1     -14.196  -3.849   0.000  1.00  0.00     0.096 A 
HETATM    6  C   UNL     1     -13.047  -4.814   0.000  1.00  0.00     0.155 A 
HETATM    7  N   UNL     1     -11.638  -4.301   0.000  1.00  0.00    -0.058 NA
BRANCH   4   8
HETATM    8  C   UNL     1     -15.085  -1.408   0.000  1.00  0.00    -0.029 C 
HETATM    9  C   UNL     1     -16.495  -1.921   0.000  1.00  0.00     0.028 C 
HETATM   10  C   UNL     1     -14.825   0.069   0.000  1.00  0.00     0.028 C 
ENDBRANCH   4   8
BRANCH   6  11
HETATM   11  C   UNL     1     -13.308  -6.291   0.000  1.00  0.00     0.432 C 
HETATM   12  F   UNL     1     -14.785  -6.030   0.000  1.00  0.00    -0.165 F 
HETATM   13  F   UNL     1     -13.568  -7.768   0.000  1.00  0.00    -0.165 F 
HETATM   14  F   UNL     1     -11.831  -6.551   0.000  1.00  0.00    -0.165 F 
ENDBRANCH   6  11
ENDBRANCH   1   2
BRANCH   1  15
HETATM   15  N   UNL     1      -8.819  -3.275   0.000  1.00  0.00    -0.092 NA
BRANCH  15  16
HETATM   16  C   UNL     1      -7.520  -2.525   0.000  1.00  0.00     0.271 A 
HETATM   17  N   UNL     1      -7.520  -1.025   0.000  1.00  0.00    -0.209 NA
HETATM   18  C   UNL     1      -6.221  -0.275   0.000  1.00  0.00     0.139 A 
HETATM   19  C   UNL     1      -4.922  -1.024   0.000  1.00  0.00     0.095 A 
HETATM   20  C   UNL     1      -4.922  -2.525   0.000  1.00  0.00     0.060 A 
HETATM   21  N   UNL     1      -6.221  -3.275   0.000  1.00  0.00    -0.214 NA
BRANCH  18  22
HETATM   22  C   UNL     1      -6.221   1.226   0.000  1.00  0.00     0.432 C 
HETATM   23  F   UNL     1      -7.721   1.225   0.000  1.00  0.00    -0.165 F 
HETATM   24  F   UNL     1      -6.221   2.725   0.000  1.00  0.00    -0.165 F 
HETATM   25  F   UNL     1      -4.721   1.226   0.000  1.00  0.00    -0.165 F 
ENDBRANCH  18  22
BRANCH  20  26
HETATM   26  C   UNL     1      -3.623  -3.275   0.000  1.00  0.00    -0.029 C 
HETATM   27  C   UNL     1      -2.324  -2.525   0.000  1.00  0.00     0.028 C 
HETATM   28  C   UNL     1      -3.623  -4.774   0.000  1.00  0.00     0.028 C 
ENDBRANCH  20  26
ENDBRANCH  15  16
ENDBRANCH   1  15
TORSDOF 7
