REMARK  0 active torsions:
REMARK  status: ('A' for Active; 'I' for Inactive)
ROOT
HETATM    1  C   UNL     1       1.785   0.464   0.000  1.00  0.00     0.005 A 
HETATM    2  C   UNL     1       1.785  -1.036   0.000  1.00  0.00     0.005 A 
HETATM    3  C   UNL     1       3.084   1.214   0.000  1.00  0.00     0.030 A 
HETATM    4  C   UNL     1       3.084  -1.786   0.000  1.00  0.00     0.026 A 
HETATM    5  C   UNL     1       4.383   0.464   0.000  1.00  0.00     0.016 A 
HETATM    6  C   UNL     1       4.383  -1.036   0.000  1.00  0.00    -0.022 A 
HETATM    7  O   UNL     1       5.222   2.862   0.000  1.00  0.00    -0.171 OA
HETATM    8  C   UNL     1       5.556   1.400   0.000  1.00  0.00     0.191 A 
HETATM    9  C   UNL     1       5.556  -1.971   0.000  1.00  0.00     0.002 A 
HETATM   10  N   UNL     1       7.018   1.066   0.000  1.00  0.00    -0.290 N 
HETATM   11  C   UNL     1       7.018  -1.637   0.000  1.00  0.00     0.067 A 
HETATM   12  C   UNL     1       7.669  -0.286   0.000  1.00  0.00     0.145 A 
HETATM   13  C   UNL     1       7.863  -2.876   0.000  1.00  0.00     0.143 A 
HETATM   14  N   UNL     1       9.165  -0.173   0.000  1.00  0.00    -0.229 NA
HETATM   15  N   UNL     1       9.359  -2.764   0.000  1.00  0.00    -0.296 N 
HETATM   16  C   UNL     1      10.010  -1.413   0.000  1.00  0.00     0.237 A 
HETATM   17  C   UNL     1       7.954   2.239   0.000  1.00  0.00     0.134 C 
HETATM   18  N   UNL     1       7.213  -4.228   0.000  1.00  0.00    -0.250 NA
HETATM   19  C   UNL     1       8.058  -5.467   0.000  1.00  0.00     0.150 A 
HETATM   20  C   UNL     1       9.553  -5.355   0.000  1.00  0.00    -0.008 A 
HETATM   21  C   UNL     1      10.204  -4.004   0.000  1.00  0.00     0.034 A 
HETATM   22  C   UNL     1      11.700  -3.892   0.000  1.00  0.00     0.043 A 
HETATM   23  C   UNL     1      12.545  -5.131   0.000  1.00  0.00     0.006 A 
HETATM   24  C   UNL     1      11.894  -6.482   0.000  1.00  0.00     0.005 A 
HETATM   25  C   UNL     1      10.398  -6.595   0.000  1.00  0.00     0.025 A 
ENDROOT
TORSDOF 0
