REMARK  1 active torsions:
REMARK  status: ('A' for Active; 'I' for Inactive)
REMARK    1  A    between atoms: N_8  and  C_25 
ROOT
HETATM    1  C   UNL     1       0.750   5.250   0.000  1.00  0.00     0.007 A 
HETATM    2  C   UNL     1       0.750   3.750   0.000  1.00  0.00     0.007 A 
HETATM    3  C   UNL     1       2.049   6.000   0.000  1.00  0.00     0.047 A 
HETATM    4  C   UNL     1       2.049   3.000   0.000  1.00  0.00     0.045 A 
HETATM    5  C   UNL     1       3.348   5.250   0.000  1.00  0.00     0.070 A 
HETATM    6  C   UNL     1       3.348   3.750   0.000  1.00  0.00     0.050 A 
HETATM    7  N   UNL     1       4.647   6.000   0.000  1.00  0.00    -0.252 NA
HETATM    8  N   UNL     1       4.647   3.000   0.000  1.00  0.00    -0.332 N 
HETATM    9  C   UNL     1       5.946   5.250   0.000  1.00  0.00     0.075 A 
HETATM   10  C   UNL     1       5.946   3.750   0.000  1.00  0.00     0.055 A 
HETATM   11  C   UNL     1       7.245   6.000   0.000  1.00  0.00     0.073 A 
HETATM   12  C   UNL     1       7.245   3.000   0.000  1.00  0.00     0.072 A 
HETATM   13  C   UNL     1       8.544   3.750   0.000  1.00  0.00    -0.007 A 
HETATM   14  C   UNL     1       8.544   5.250   0.000  1.00  0.00    -0.023 A 
HETATM   15  C   UNL     1       9.843   3.000   0.000  1.00  0.00     0.079 A 
HETATM   16  C   UNL     1       9.843   7.500   0.000  1.00  0.00     0.026 A 
HETATM   17  C   UNL     1       9.843   6.000   0.000  1.00  0.00    -0.028 A 
HETATM   18 CL   UNL     1       9.843   1.500   0.000  1.00  0.00    -0.081 Cl
HETATM   19  C   UNL     1      11.142   3.750   0.000  1.00  0.00     0.137 A 
HETATM   20  C   UNL     1      11.142   8.250   0.000  1.00  0.00     0.005 A 
HETATM   21  C   UNL     1      11.142   5.250   0.000  1.00  0.00    -0.000 A 
HETATM   22  C   UNL     1      12.441   6.000   0.000  1.00  0.00     0.028 A 
HETATM   23  O   UNL     1      12.441   3.000   0.000  1.00  0.00    -0.190 OA
HETATM   24  C   UNL     1      12.441   7.500   0.000  1.00  0.00     0.005 A 
ENDROOT
BRANCH   8  25
HETATM   25  C   UNL     1       4.647   1.500   0.000  1.00  0.00     0.106 C 
HETATM   26  C   UNL     1       3.348   0.750   0.000  1.00  0.00     0.026 C 
ENDBRANCH   8  25
TORSDOF 1
