REMARK  1 active torsions:
REMARK  status: ('A' for Active; 'I' for Inactive)
REMARK    1  A    between atoms: C_1  and  C_11 
ROOT
HETATM    1  C   UNL     1       5.688   0.517   0.000  1.00  0.00     0.025 A 
HETATM    2  C   UNL     1       6.902   1.399   0.000  1.00  0.00     0.136 A 
HETATM    3  S   UNL     1       6.152  -0.909   0.000  1.00  0.00    -0.054 SA
HETATM    4  N   UNL     1       8.115   0.518   0.000  1.00  0.00    -0.324 N 
HETATM    5  C   UNL     1       7.652  -0.909   0.000  1.00  0.00     0.173 A 
HETATM    6  C   UNL     1       9.583   0.829   0.000  1.00  0.00     0.112 A 
HETATM    7  N   UNL     1       8.656  -2.024   0.000  1.00  0.00    -0.200 NA
HETATM    8  C   UNL     1      10.586  -0.285   0.000  1.00  0.00     0.099 A 
HETATM    9  C   UNL     1      10.123  -1.712   0.000  1.00  0.00     0.193 A 
HETATM   10  O   UNL     1      11.127  -2.827   0.000  1.00  0.00    -0.174 OA
ENDROOT
BRANCH   1  11
HETATM   11  C   UNL     1       4.262   0.981   0.000  1.00  0.00    -0.040 A 
HETATM   12  C   UNL     1       3.147  -0.023   0.000  1.00  0.00     0.022 A 
HETATM   13  C   UNL     1       1.720   0.441   0.000  1.00  0.00     0.004 A 
HETATM   14  C   UNL     1       1.409   1.908   0.000  1.00  0.00     0.001 A 
HETATM   15  C   UNL     1       2.523   2.912   0.000  1.00  0.00     0.004 A 
HETATM   16  C   UNL     1       3.950   2.448   0.000  1.00  0.00     0.022 A 
ENDBRANCH   1  11
TORSDOF 1
