REMARK  0 active torsions:
REMARK  status: ('A' for Active; 'I' for Inactive)
ROOT
HETATM    1  C   UNL     1       2.719   2.323   0.000  1.00  0.00     0.005 A 
HETATM    2  C   UNL     1       2.719   0.823   0.000  1.00  0.00     0.007 A 
HETATM    3  C   UNL     1       4.018   3.073   0.000  1.00  0.00     0.034 A 
HETATM    4  C   UNL     1       4.018   0.073   0.000  1.00  0.00     0.044 A 
HETATM    5  C   UNL     1       5.317   2.323   0.000  1.00  0.00     0.022 A 
HETATM    6  C   UNL     1       5.317   0.823   0.000  1.00  0.00     0.042 A 
HETATM    7  S   UNL     1       6.744   2.787   0.000  1.00  0.00    -0.052 SA
HETATM    8  N   UNL     1       6.744   0.359   0.000  1.00  0.00    -0.293 N 
HETATM    9  C   UNL     1       7.625   1.573   0.000  1.00  0.00     0.190 A 
HETATM   10  N   UNL     1       9.052   1.109   0.000  1.00  0.00    -0.153 NA
HETATM   11  C   UNL     1       7.625  -0.854   0.000  1.00  0.00     0.226 A 
HETATM   12  N   UNL     1       9.052  -0.391   0.000  1.00  0.00    -0.072 NA
HETATM   13  C   UNL     1       1.420   3.073   0.000  1.00  0.00     0.000 C 
ENDROOT
TORSDOF 0
