REMARK  6 active torsions:
REMARK  status: ('A' for Active; 'I' for Inactive)
REMARK    1  A    between atoms: C_5  and  C_9 
REMARK    2  A    between atoms: C_9  and  C_10 
REMARK    3  A    between atoms: C_10  and  C_11 
REMARK    4  A    between atoms: C_11  and  C_12 
REMARK    5  A    between atoms: C_12  and  C_13 
REMARK    6  A    between atoms: C_13  and  C_14 
ROOT
HETATM    1  O   UNL     1     -11.830  -5.693   0.000  1.00  0.00    -0.150 OA
HETATM    2  H   UNL     1      -9.190  -3.775   0.000  1.00  0.00     0.164 HD
HETATM    3  N   UNL     1      -9.190  -5.275   0.000  1.00  0.00    -0.337 N 
HETATM    4  O   UNL     1      -7.559  -8.796   0.000  1.00  0.00    -0.194 OA
HETATM    5  C   UNL     1      -7.977  -6.156   0.000  1.00  0.00     0.114 A 
HETATM    6  C   UNL     1      -8.440  -7.583   0.000  1.00  0.00     0.276 A 
HETATM    7  C   UNL     1     -10.404  -6.156   0.000  1.00  0.00     0.273 A 
HETATM    8  N   UNL     1      -9.940  -7.583   0.000  1.00  0.00    -0.199 NA
HETATM    9  C   UNL     1      -6.606  -6.766   0.000  1.00  0.00     0.027 C 
ENDROOT
BRANCH   5  10
HETATM   10  C   UNL     1      -7.227  -4.857   0.000  1.00  0.00     0.025 C 
BRANCH  10  11
HETATM   11  C   UNL     1      -5.727  -4.857   0.000  1.00  0.00     0.002 C 
BRANCH  11  12
HETATM   12  C   UNL     1      -4.977  -3.558   0.000  1.00  0.00     0.000 C 
BRANCH  12  13
HETATM   13  C   UNL     1      -3.477  -3.558   0.000  1.00  0.00     0.000 C 
BRANCH  13  14
HETATM   14  C   UNL     1      -2.727  -2.259   0.000  1.00  0.00     0.000 C 
BRANCH  14  15
HETATM   15  C   UNL     1      -1.227  -2.259   0.000  1.00  0.00     0.000 C 
HETATM   16  C   UNL     1      -0.477  -0.960   0.000  1.00  0.00     0.000 C 
ENDBRANCH  14  15
ENDBRANCH  13  14
ENDBRANCH  12  13
ENDBRANCH  11  12
ENDBRANCH  10  11
ENDBRANCH   5  10
TORSDOF 6
