REMARK  2 active torsions:
REMARK  status: ('A' for Active; 'I' for Inactive)
REMARK    1  A    between atoms: N_3  and  C_7 
REMARK    2  A    between atoms: C_7  and  C_8 
ROOT
HETATM    1  S   UNL     1       1.320   1.636   0.000  1.00  0.00    -0.084 SA
HETATM    2  S   UNL     1       2.534   4.017   0.000  1.00  0.00    -0.053 SA
HETATM    3  N   UNL     1       3.747   1.636   0.000  1.00  0.00    -0.332 N 
HETATM    4  C   UNL     1       2.534   2.517   0.000  1.00  0.00     0.139 A 
HETATM    5  C   UNL     1       3.284   0.209   0.000  1.00  0.00     0.115 A 
HETATM    6  C   UNL     1       1.784   0.209   0.000  1.00  0.00     0.088 A 
ENDROOT
BRANCH   3   7
HETATM    7  C   UNL     1       5.174   2.099   0.000  1.00  0.00     0.138 C 
BRANCH   7   8
HETATM    8  C   UNL     1       6.288   1.095   0.000  1.00  0.00     0.206 C 
HETATM    9  O   UNL     1       7.715   1.559   0.000  1.00  0.00    -0.219 OA
ENDBRANCH   7   8
ENDBRANCH   3   7
TORSDOF 2
