REMARK  6 active torsions:
REMARK  status: ('A' for Active; 'I' for Inactive)
REMARK    1  A    between atoms: C_2  and  C_19 
REMARK    2  A    between atoms: N_5  and  C_19 
REMARK    3  A    between atoms: N_9  and  C_20 
REMARK    4  A    between atoms: N_11  and  C_21 
REMARK    5  A    between atoms: C_12  and  C_20 
REMARK    6  A    between atoms: C_16  and  C_21 
ROOT
HETATM    1  O   UNL     1       3.723  -4.949   0.000  1.00  0.00    -0.150 OA
HETATM    2  N   UNL     1       5.022  -2.699   0.000  1.00  0.00    -0.255 N 
HETATM    3  C   UNL     1       5.022  -4.199   0.000  1.00  0.00     0.268 A 
HETATM    4  O   UNL     1       6.321  -0.449   0.000  1.00  0.00    -0.150 OA
HETATM    5  C   UNL     1       6.321  -1.949   0.000  1.00  0.00     0.268 A 
HETATM    6  N   UNL     1       6.321  -4.949   0.000  1.00  0.00    -0.255 N 
HETATM    7  C   UNL     1       7.620  -4.199   0.000  1.00  0.00     0.268 A 
HETATM    8  N   UNL     1       7.620  -2.699   0.000  1.00  0.00    -0.255 N 
HETATM    9  O   UNL     1       8.919  -4.949   0.000  1.00  0.00    -0.150 OA
ENDROOT
BRANCH   2  10
HETATM   10  C   UNL     1       3.723  -1.949   0.000  1.00  0.00     0.145 C 
BRANCH  10  11
HETATM   11  C   UNL     1       3.723  -0.449   0.000  1.00  0.00     0.168 A 
HETATM   12  O   UNL     1       4.473   0.851   0.000  1.00  0.00    -0.349 OA
HETATM   13  C   UNL     1       2.973   0.851   0.000  1.00  0.00     0.174 A 
ENDBRANCH  10  11
ENDBRANCH   2  10
BRANCH   8  14
HETATM   14  C   UNL     1       8.919  -1.949   0.000  1.00  0.00     0.145 C 
BRANCH  14  15
HETATM   15  C   UNL     1       8.919  -0.449   0.000  1.00  0.00     0.168 A 
HETATM   16  O   UNL     1       8.169   0.851   0.000  1.00  0.00    -0.349 OA
HETATM   17  C   UNL     1       9.669   0.851   0.000  1.00  0.00     0.174 A 
ENDBRANCH  14  15
ENDBRANCH   8  14
BRANCH   6  18
HETATM   18  C   UNL     1       6.321  -6.449   0.000  1.00  0.00     0.145 C 
BRANCH  18  19
HETATM   19  C   UNL     1       7.620  -7.199   0.000  1.00  0.00     0.168 A 
HETATM   20  O   UNL     1       9.120  -7.199   0.000  1.00  0.00    -0.349 OA
HETATM   21  C   UNL     1       8.370  -8.498   0.000  1.00  0.00     0.174 A 
ENDBRANCH  18  19
ENDBRANCH   6  18
TORSDOF 6
