REMARK  3 active torsions:
REMARK  status: ('A' for Active; 'I' for Inactive)
REMARK    1  A    between atoms: C_6  and  N_7 
REMARK    2  A    between atoms: N_7  and  N_8 
REMARK    3  A    between atoms: N_8  and  C_9 
ROOT
HETATM    1  C   UNL     1       3.475   7.520   0.000  1.00  0.00     0.159 A 
HETATM    2  C   UNL     1       4.226   6.221   0.000  1.00  0.00     0.088 A 
HETATM    3  C   UNL     1       1.976   7.520   0.000  1.00  0.00     0.040 A 
HETATM    4  C   UNL     1       1.226   6.221   0.000  1.00  0.00     0.052 A 
HETATM    5  C   UNL     1       3.475   4.922   0.000  1.00  0.00     0.126 A 
HETATM    6  C   UNL     1       1.976   4.922   0.000  1.00  0.00     0.102 A 
HETATM    7  O   UNL     1       4.226   8.819   0.000  1.00  0.00    -0.223 OA
HETATM    8  O   UNL     1       4.226   3.623   0.000  1.00  0.00    -0.194 OA
ENDROOT
BRANCH   6   9
HETATM    9  N   UNL     1       1.226   3.623   0.000  1.00  0.00    -0.149 NA
BRANCH   9  10
HETATM   10  N   UNL     1       1.976   2.324   0.000  1.00  0.00    -0.122 NA
BRANCH  10  11
HETATM   11  C   UNL     1       1.226   1.024   0.000  1.00  0.00     0.206 A 
HETATM   12  S   UNL     1      -0.266   0.868   0.000  1.00  0.00    -0.072 SA
HETATM   13  C   UNL     1      -0.578  -0.600   0.000  1.00  0.00     0.091 A 
HETATM   14  C   UNL     1       0.721  -1.349   0.000  1.00  0.00     0.140 A 
HETATM   15  N   UNL     1       1.836  -0.346   0.000  1.00  0.00    -0.245 NA
ENDBRANCH  10  11
ENDBRANCH   9  10
ENDBRANCH   6   9
TORSDOF 3
