REMARK  0 active torsions:
REMARK  status: ('A' for Active; 'I' for Inactive)
ROOT
HETATM    1  S   UNL     1       0.623   1.590   0.000  1.00  0.00    -0.045 SA
HETATM    2  N   UNL     1       0.991  -0.809   0.000  1.00  0.00    -0.303 N 
HETATM    3  O   UNL     1       3.161   0.752   0.000  1.00  0.00    -0.164 OA
HETATM    4  C   UNL     1      -2.197   1.158   0.000  1.00  0.00     0.035 A 
HETATM    5  C   UNL     1      -2.885  -0.176   0.000  1.00  0.00     0.011 A 
HETATM    6  C   UNL     1      -0.717   0.916   0.000  1.00  0.00     0.022 A 
HETATM    7  C   UNL     1      -0.489  -0.567   0.000  1.00  0.00     0.042 A 
HETATM    8  C   UNL     1      -1.829  -1.241   0.000  1.00  0.00     0.044 A 
HETATM    9  C   UNL     1       1.678   0.525   0.000  1.00  0.00     0.225 A 
HETATM   10  C   UNL     1       1.665  -2.148   0.000  1.00  0.00     0.133 C 
ENDROOT
TORSDOF 0
