REMARK  4 active torsions:
REMARK  status: ('A' for Active; 'I' for Inactive)
REMARK    1  A    between atoms: C_1  and  N_2 
REMARK    2  A    between atoms: C_1  and  C_10 
REMARK    3  A    between atoms: N_2  and  C_16 
REMARK    4  A    between atoms: C_4  and  C_16 
ROOT
HETATM    1  N   UNL     1       4.057   5.229   0.000  1.00  0.00    -0.217 N 
HETATM    2  O   UNL     1       4.570   3.820   0.000  1.00  0.00    -0.085 OA
ENDROOT
BRANCH   1   3
HETATM    3  C   UNL     1       2.579   5.489   0.000  1.00  0.00     0.126 C 
BRANCH   3   4
HETATM    4  C   UNL     1       1.615   4.340   0.000  1.00  0.00    -0.039 A 
HETATM    5  C   UNL     1       2.128   2.931   0.000  1.00  0.00     0.023 A 
HETATM    6  C   UNL     1       1.164   1.782   0.000  1.00  0.00     0.004 A 
HETATM    7  C   UNL     1      -0.313   2.042   0.000  1.00  0.00     0.001 A 
HETATM    8  C   UNL     1      -0.826   3.452   0.000  1.00  0.00     0.004 A 
HETATM    9  C   UNL     1       0.138   4.601   0.000  1.00  0.00     0.023 A 
ENDBRANCH   3   4
ENDBRANCH   1   3
BRANCH   1  10
HETATM   10  C   UNL     1       5.021   6.378   0.000  1.00  0.00     0.165 C 
BRANCH  10  11
HETATM   11  C   UNL     1       6.498   6.118   0.000  1.00  0.00     0.150 A 
HETATM   12  C   UNL     1       6.498   7.618   0.000  1.00  0.00     0.033 A 
HETATM   13  C   UNL     1       7.797   8.368   0.000  1.00  0.00     0.003 A 
HETATM   14  C   UNL     1       9.096   7.618   0.000  1.00  0.00     0.000 A 
HETATM   15  C   UNL     1       9.096   6.118   0.000  1.00  0.00     0.003 A 
HETATM   16  C   UNL     1       7.797   5.368   0.000  1.00  0.00     0.033 A 
HETATM   17  O   UNL     1       5.985   4.708   0.000  1.00  0.00    -0.224 OA
ENDBRANCH  10  11
ENDBRANCH   1  10
TORSDOF 4
