REMARK  3 active torsions:
REMARK  status: ('A' for Active; 'I' for Inactive)
REMARK    1  A    between atoms: C_5  and  C_7 
REMARK    2  A    between atoms: C_8  and  N_19 
REMARK    3  A    between atoms: N_14  and  C_22 
ROOT
HETATM    1  C   UNL     1      -1.834  -7.677   0.000  1.00  0.00     0.180 A 
HETATM    2  C   UNL     1      -1.834  -9.177   0.000  1.00  0.00     0.090 A 
HETATM    3  C   UNL     1      -0.535  -9.927   0.000  1.00  0.00     0.008 A 
HETATM    4  O   UNL     1      -0.535  -6.927   0.000  1.00  0.00    -0.275 OA
HETATM    5  C   UNL     1       0.764  -9.177   0.000  1.00  0.00     0.057 A 
HETATM    6  C   UNL     1       0.764  -7.677   0.000  1.00  0.00     0.185 A 
HETATM    7  C   UNL     1       2.191  -9.640   0.000  1.00  0.00     0.083 A 
HETATM    8  N   UNL     1       2.191  -7.213   0.000  1.00  0.00    -0.216 N 
HETATM    9  N   UNL     1       3.072  -8.427   0.000  1.00  0.00    -0.168 NA
HETATM   10  N   UNL     1      -3.133  -6.927   0.000  1.00  0.00    -0.073 NA
HETATM   11  C   UNL     1      -3.133  -9.927   0.000  1.00  0.00     0.025 C 
HETATM   12  N   UNL     1      -4.432 -10.677   0.000  1.00  0.00    -0.096 N 
HETATM   13  C   UNL     1       2.654 -11.067   0.000  1.00  0.00     0.054 C 
ENDROOT
BRANCH   3  14
HETATM   14  C   UNL     1      -0.535 -11.427   0.000  1.00  0.00    -0.043 A 
HETATM   15  C   UNL     1      -1.834 -12.177   0.000  1.00  0.00     0.028 A 
HETATM   16  C   UNL     1      -1.834 -13.677   0.000  1.00  0.00     0.050 A 
HETATM   17  C   UNL     1      -0.535 -14.427   0.000  1.00  0.00     0.083 A 
HETATM   18  C   UNL     1       0.764 -13.677   0.000  1.00  0.00     0.050 A 
HETATM   19  C   UNL     1       0.764 -12.177   0.000  1.00  0.00     0.028 A 
BRANCH  17  20
HETATM   20  N   UNL     1      -0.535 -15.927   0.000  1.00  0.00    -0.122 N 
HETATM   21  O   UNL     1      -1.834 -16.677   0.000  1.00  0.00    -0.532 OA
HETATM   22  O   UNL     1       0.764 -16.677   0.000  1.00  0.00    -0.532 OA
ENDBRANCH  17  20
ENDBRANCH   3  14
BRANCH   8  23
HETATM   23  C   UNL     1       2.654  -5.787   0.000  1.00  0.00     0.040 A 
HETATM   24  C   UNL     1       1.650  -4.672   0.000  1.00  0.00     0.042 A 
HETATM   25  C   UNL     1       2.114  -3.245   0.000  1.00  0.00     0.006 A 
HETATM   26  C   UNL     1       3.581  -2.934   0.000  1.00  0.00     0.001 A 
HETATM   27  C   UNL     1       4.585  -4.048   0.000  1.00  0.00     0.006 A 
HETATM   28  C   UNL     1       4.121  -5.475   0.000  1.00  0.00     0.042 A 
ENDBRANCH   8  23
TORSDOF 3
