REMARK  5 active torsions:
REMARK  status: ('A' for Active; 'I' for Inactive)
REMARK    1  A    between atoms: C_5  and  N_7 
REMARK    2  A    between atoms: N_7  and  N_8 
REMARK    3  A    between atoms: N_8  and  C_9 
REMARK    4  A    between atoms: N_11  and  C_17 
REMARK    5  A    between atoms: C_13  and  C_17 
ROOT
HETATM    1  C   UNL     1       1.813   7.082   0.000  1.00  0.00     0.198 A 
HETATM    2  S   UNL     1       3.026   7.964   0.000  1.00  0.00    -0.049 SA
HETATM    3  N   UNL     1       2.276   5.656   0.000  1.00  0.00    -0.285 N 
HETATM    4  C   UNL     1       3.776   5.656   0.000  1.00  0.00     0.198 A 
HETATM    5  C   UNL     1       4.240   7.082   0.000  1.00  0.00     0.052 A 
HETATM    6  O   UNL     1       4.658   4.442   0.000  1.00  0.00    -0.171 OA
HETATM    7  C   UNL     1       5.666   7.546   0.000  1.00  0.00     0.042 C 
ENDROOT
BRANCH   1   8
HETATM    8  N   UNL     1       0.386   7.546   0.000  1.00  0.00    -0.121 NA
BRANCH   8   9
HETATM    9  N   UNL     1      -0.729   6.542   0.000  1.00  0.00    -0.122 NA
BRANCH   9  10
HETATM   10  C   UNL     1      -2.155   7.006   0.000  1.00  0.00     0.194 A 
HETATM   11  S   UNL     1      -3.369   6.124   0.000  1.00  0.00    -0.067 SA
HETATM   12  C   UNL     1      -4.582   7.006   0.000  1.00  0.00     0.138 A 
HETATM   13  C   UNL     1      -4.119   8.432   0.000  1.00  0.00     0.184 A 
HETATM   14  O   UNL     1      -5.000   9.646   0.000  1.00  0.00    -0.175 OA
HETATM   15  N   UNL     1      -2.619   8.432   0.000  1.00  0.00    -0.286 N 
HETATM   16  C   UNL     1      -1.737   9.646   0.000  1.00  0.00     0.134 C 
ENDBRANCH   9  10
ENDBRANCH   8   9
ENDBRANCH   1   8
BRANCH   3  17
HETATM   17  C   UNL     1       1.395   4.442   0.000  1.00  0.00     0.110 C 
BRANCH  17  18
HETATM   18  C   UNL     1       2.005   3.072   0.000  1.00  0.00     0.023 C 
HETATM   19  C   UNL     1       1.123   1.859   0.000  1.00  0.00     0.002 C 
HETATM   20  C   UNL     1       3.496   2.915   0.000  1.00  0.00     0.002 C 
ENDBRANCH  17  18
ENDBRANCH   3  17
TORSDOF 5
