REMARK  4 active torsions:
REMARK  status: ('A' for Active; 'I' for Inactive)
REMARK    1  A    between atoms: O_1  and  C_2 
REMARK    2  A    between atoms: O_1  and  C_19 
REMARK       I    between atoms: C_2  and  N_21 
REMARK    3  A    between atoms: C_4  and  N_21 
REMARK    4  A    between atoms: C_13  and  C_14 
ROOT
HETATM    1  C   UNL     1       0.851   5.571   0.000  1.00  0.00     0.047 A 
HETATM    2  C   UNL     1       2.350   5.571   0.000  1.00  0.00     0.048 A 
HETATM    3  C   UNL     1       0.101   6.870   0.000  1.00  0.00     0.088 A 
HETATM    4  C   UNL     1       3.100   6.870   0.000  1.00  0.00     0.051 A 
HETATM    5  C   UNL     1       2.350   8.169   0.000  1.00  0.00     0.049 A 
HETATM    6  C   UNL     1       0.851   8.169   0.000  1.00  0.00     0.078 A 
HETATM    7  N   UNL     1       0.387   9.596   0.000  1.00  0.00    -0.230 NA
HETATM    8  N   UNL     1       2.814   9.596   0.000  1.00  0.00    -0.340 N 
HETATM    9  H   UNL     1       4.241  10.059   0.000  1.00  0.00     0.167 HD
HETATM   10  C   UNL     1       1.601  10.477   0.000  1.00  0.00     0.154 A 
ENDROOT
BRANCH   1  11
HETATM   11  N   UNL     1       0.101   4.272   0.000  1.00  0.00    -0.207 NA
HETATM   12  C   UNL     1      -1.399   4.272   0.000  1.00  0.00     0.318 C 
HETATM   13  O   UNL     1      -2.150   5.571   0.000  1.00  0.00    -0.141 OA
BRANCH  12  14
HETATM   14  O   UNL     1      -2.150   2.973   0.000  1.00  0.00    -0.294 OA
BRANCH  14  15
HETATM   15  C   UNL     1      -3.650   2.973   0.000  1.00  0.00     0.153 C 
HETATM   16  C   UNL     1      -4.399   4.272   0.000  1.00  0.00     0.035 C 
ENDBRANCH  14  15
ENDBRANCH  12  14
ENDBRANCH   1  11
BRANCH  10  17
HETATM   17  C   UNL     1       1.601  11.977   0.000  1.00  0.00     0.099 A 
HETATM   18  C   UNL     1       0.387  12.859   0.000  1.00  0.00     0.108 A 
HETATM   19  S   UNL     1       0.851  14.286   0.000  1.00  0.00    -0.108 SA
HETATM   20  C   UNL     1       2.350  14.286   0.000  1.00  0.00     0.183 A 
HETATM   21  N   UNL     1       2.814  12.859   0.000  1.00  0.00    -0.259 NA
ENDBRANCH  10  17
TORSDOF 4
