REMARK  5 active torsions:
REMARK  status: ('A' for Active; 'I' for Inactive)
REMARK    1  A    between atoms: C_1  and  C_12 
REMARK    2  A    between atoms: C_6  and  C_18 
REMARK    3  A    between atoms: C_9  and  O_11 
REMARK    4  A    between atoms: C_9  and  C_18 
REMARK    5  A    between atoms: O_11  and  C_19 
ROOT
HETATM    1  C   UNL     1      -2.010   0.838   0.000  1.00  0.00     0.176 A 
HETATM    2  N   UNL     1      -1.152   2.068   0.000  1.00  0.00    -0.201 NA
HETATM    3  N   UNL     1      -1.105  -0.358   0.000  1.00  0.00    -0.145 NA
HETATM    4  C   UNL     1       0.283   1.633   0.000  1.00  0.00     0.192 A 
HETATM    5  N   UNL     1       0.313   0.133   0.000  1.00  0.00    -0.213 N 
HETATM    6  C   UNL     1       1.748  -0.303   0.000  1.00  0.00     0.057 A 
HETATM    7  S   UNL     1       1.700   2.124   0.000  1.00  0.00    -0.069 SA
HETATM    8  C   UNL     1       2.606   0.928   0.000  1.00  0.00     0.106 A 
ENDROOT
BRANCH   1   9
HETATM    9  C   UNL     1      -3.510   0.808   0.000  1.00  0.00    -0.007 A 
HETATM   10  C   UNL     1      -4.234  -0.505   0.000  1.00  0.00     0.025 A 
HETATM   11  C   UNL     1      -5.734  -0.534   0.000  1.00  0.00     0.004 A 
HETATM   12  C   UNL     1      -6.509   0.750   0.000  1.00  0.00     0.001 A 
HETATM   13  C   UNL     1      -5.785   2.063   0.000  1.00  0.00     0.004 A 
HETATM   14  C   UNL     1      -4.285   2.092   0.000  1.00  0.00     0.025 A 
ENDBRANCH   1   9
BRANCH   6  15
HETATM   15  C   UNL     1       2.239  -1.720   0.000  1.00  0.00     0.107 C 
BRANCH  15  16
HETATM   16  C   UNL     1       3.712  -2.003   0.000  1.00  0.00     0.275 C 
HETATM   17  O   UNL     1       4.204  -3.421   0.000  1.00  0.00    -0.190 OA
BRANCH  16  18
HETATM   18  O   UNL     1       4.694  -0.869   0.000  1.00  0.00    -0.329 OA
BRANCH  18  19
HETATM   19  C   UNL     1       6.167  -1.152   0.000  1.00  0.00     0.145 C 
HETATM   20  C   UNL     1       6.658  -2.570   0.000  1.00  0.00     0.035 C 
ENDBRANCH  18  19
ENDBRANCH  16  18
ENDBRANCH  15  16
ENDBRANCH   6  15
TORSDOF 5
