REMARK  5 active torsions:
REMARK  status: ('A' for Active; 'I' for Inactive)
REMARK    1  A    between atoms: C_5  and  C_8 
REMARK    2  A    between atoms: C_8  and  C_10 
REMARK    3  A    between atoms: C_8  and  N_9 
REMARK    4  A    between atoms: C_10  and  O_11 
REMARK    5  A    between atoms: O_11  and  C_17 
ROOT
HETATM    1  N   UNL     1      -6.193  -6.585   0.000  1.00  0.00    -0.153 NA
HETATM    2  C   UNL     1      -4.569  -8.389   0.000  1.00  0.00     0.153 A 
HETATM    3  C   UNL     1      -4.822  -5.975   0.000  1.00  0.00     0.187 A 
HETATM    4  N   UNL     1      -3.819  -7.090   0.000  1.00  0.00    -0.297 N 
HETATM    5  C   UNL     1      -2.449  -6.480   0.000  1.00  0.00     0.075 A 
HETATM    6  S   UNL     1      -4.072  -4.676   0.000  1.00  0.00    -0.070 SA
HETATM    7  C   UNL     1      -2.605  -4.988   0.000  1.00  0.00     0.111 A 
HETATM    8  N   UNL     1      -6.036  -8.077   0.000  1.00  0.00    -0.080 NA
HETATM    9  C   UNL     1      -5.032  -9.816   0.000  1.00  0.00     0.043 C 
HETATM   10  C   UNL     1      -3.199  -8.999   0.000  1.00  0.00     0.043 C 
ENDROOT
BRANCH   5  11
HETATM   11  C   UNL     1      -1.149  -7.230   0.000  1.00  0.00     0.172 C 
BRANCH  11  12
HETATM   12  C   UNL     1       0.150  -6.480   0.000  1.00  0.00     0.250 C 
HETATM   13  O   UNL     1       1.449  -7.230   0.000  1.00  0.00    -0.162 OA
BRANCH  12  14
HETATM   14  O   UNL     1       0.150  -4.980   0.000  1.00  0.00    -0.308 OA
BRANCH  14  15
HETATM   15  C   UNL     1       1.449  -4.230   0.000  1.00  0.00     0.151 C 
HETATM   16  C   UNL     1       1.449  -2.730   0.000  1.00  0.00     0.035 C 
ENDBRANCH  14  15
ENDBRANCH  12  14
ENDBRANCH  11  12
BRANCH  11  17
HETATM   17  N   UNL     1      -1.149  -8.730   0.000  1.00  0.00    -0.091 NA
HETATM   18  O   UNL     1       0.150  -9.480   0.000  1.00  0.00    -0.060 OA
ENDBRANCH  11  17
ENDBRANCH   5  11
TORSDOF 5
