REMARK  4 active torsions:
REMARK  status: ('A' for Active; 'I' for Inactive)
REMARK    1  A    between atoms: C_1  and  C_8 
REMARK    2  A    between atoms: C_1  and  C_12 
REMARK    3  A    between atoms: C_8  and  C_9 
REMARK    4  A    between atoms: C_12  and  C_13 
ROOT
HETATM    1  C   UNL     1       1.170   5.474   0.000  1.00  0.00     0.020 A 
HETATM    2  C   UNL     1      -0.129   6.224   0.000  1.00  0.00     0.001 A 
HETATM    3  C   UNL     1      -1.428   5.474   0.000  1.00  0.00     0.000 A 
HETATM    4  C   UNL     1       1.170   3.974   0.000  1.00  0.00     0.001 A 
HETATM    5  C   UNL     1      -1.428   3.974   0.000  1.00  0.00     0.000 A 
HETATM    6  C   UNL     1      -0.129   3.224   0.000  1.00  0.00     0.000 A 
HETATM    7  C   UNL     1      -0.129   1.724   0.000  1.00  0.00     0.000 C 
ENDROOT
BRANCH   1   8
HETATM    8  C   UNL     1       1.683   6.883   0.000  1.00  0.00     0.098 C 
BRANCH   8   9
HETATM    9  C   UNL     1       3.160   7.144   0.000  1.00  0.00     0.185 C 
HETATM   10  O   UNL     1       3.673   8.553   0.000  1.00  0.00    -0.647 OA
HETATM   11  O   UNL     1       4.124   5.995   0.000  1.00  0.00    -0.647 OA
ENDBRANCH   8   9
ENDBRANCH   1   8
BRANCH   1  12
HETATM   12  C   UNL     1       2.647   5.213   0.000  1.00  0.00     0.098 C 
BRANCH  12  13
HETATM   13  C   UNL     1       3.160   3.804   0.000  1.00  0.00     0.185 C 
HETATM   14  O   UNL     1       4.637   3.543   0.000  1.00  0.00    -0.647 OA
HETATM   15  O   UNL     1       2.196   2.655   0.000  1.00  0.00    -0.647 OA
ENDBRANCH  12  13
ENDBRANCH   1  12
TORSDOF 4
