REMARK  4 active torsions:
REMARK  status: ('A' for Active; 'I' for Inactive)
REMARK    1  A    between atoms: C_16  and  N_21 
REMARK    2  A    between atoms: N_17  and  C_24 
REMARK    3  A    between atoms: N_20  and  C_25 
REMARK    4  A    between atoms: C_24  and  C_25 
ROOT
HETATM    1  C   UNL     1       2.748   9.731   0.000  1.00  0.00     0.030 A 
HETATM    2  C   UNL     1       1.248   9.731   0.000  1.00  0.00     0.009 A 
HETATM    3  C   UNL     1       4.998   8.432   0.000  1.00  0.00     0.192 A 
HETATM    4  C   UNL     1       3.498   8.432   0.000  1.00  0.00     0.019 A 
HETATM    5  C   UNL     1       0.498   8.432   0.000  1.00  0.00     0.023 A 
HETATM    6  C   UNL     1       2.748   7.133   0.000  1.00  0.00    -0.008 A 
HETATM    7  C   UNL     1       1.248   7.133   0.000  1.00  0.00    -0.039 A 
HETATM    8  C   UNL     1       4.998   5.834   0.000  1.00  0.00     0.192 A 
HETATM    9  C   UNL     1       3.498   5.834   0.000  1.00  0.00     0.025 A 
HETATM   10  C   UNL     1       0.498   5.834   0.000  1.00  0.00     0.068 A 
HETATM   11  C   UNL     1       2.748   4.535   0.000  1.00  0.00     0.076 A 
HETATM   12  C   UNL     1       1.248   4.535   0.000  1.00  0.00     0.090 A 
HETATM   13  N   UNL     1       5.748   7.133   0.000  1.00  0.00    -0.284 N 
HETATM   14  O   UNL     1       5.748   4.535   0.000  1.00  0.00    -0.171 OA
HETATM   15  O   UNL     1       5.748   9.731   0.000  1.00  0.00    -0.171 OA
ENDROOT
BRANCH  13  16
HETATM   16  C   UNL     1       7.248   7.133   0.000  1.00  0.00     0.134 C 
BRANCH  16  17
HETATM   17  C   UNL     1       7.998   8.432   0.000  1.00  0.00     0.122 C 
BRANCH  17  18
HETATM   18  N   UNL     1       9.498   8.432   0.000  1.00  0.00    -0.367 N 
HETATM   19  C   UNL     1      10.379   9.646   0.000  1.00  0.00     0.097 A 
HETATM   20  C   UNL     1      11.806   9.182   0.000  1.00  0.00     0.026 A 
HETATM   21  C   UNL     1      11.806   7.682   0.000  1.00  0.00     0.026 A 
HETATM   22  C   UNL     1      10.379   7.219   0.000  1.00  0.00     0.097 A 
ENDBRANCH  17  18
ENDBRANCH  16  17
ENDBRANCH  13  16
BRANCH  12  23
HETATM   23  N   UNL     1       0.498   3.236   0.000  1.00  0.00    -0.121 N 
HETATM   24  O   UNL     1      -1.002   3.236   0.000  1.00  0.00    -0.532 OA
HETATM   25  O   UNL     1       1.248   1.937   0.000  1.00  0.00    -0.532 OA
ENDBRANCH  12  23
TORSDOF 4
