REMARK  1 active torsions:
REMARK  status: ('A' for Active; 'I' for Inactive)
REMARK    1  A    between atoms: C_2  and  C_7 
ROOT
HETATM    1  C   UNL     1      -2.223  -3.650   0.000  1.00  0.00    -0.041 A 
HETATM    2  C   UNL     1      -0.924  -4.399   0.000  1.00  0.00     0.033 A 
HETATM    3  C   UNL     1      -3.522  -4.399   0.000  1.00  0.00     0.048 A 
HETATM    4  C   UNL     1      -0.924  -5.899   0.000  1.00  0.00     0.149 A 
HETATM    5  C   UNL     1      -3.522  -5.899   0.000  1.00  0.00     0.125 A 
HETATM    6  N   UNL     1      -2.223  -6.649   0.000  1.00  0.00    -0.290 NA
HETATM    7  C   UNL     1      -2.223  -2.150   0.000  1.00  0.00     0.026 C 
ENDROOT
BRANCH   2   8
HETATM    8  C   UNL     1       0.375  -3.650   0.000  1.00  0.00     0.198 C 
HETATM    9  O   UNL     1       1.674  -4.399   0.000  1.00  0.00    -0.175 OA
HETATM   10  N   UNL     1       0.375  -2.150   0.000  1.00  0.00    -0.071 NA
ENDBRANCH   2   8
TORSDOF 1
