REMARK  1 active torsions:
REMARK  status: ('A' for Active; 'I' for Inactive)
REMARK    1  A    between atoms: C_9  and  C_10 
ROOT
HETATM    1  C   UNL     1      -4.761  -3.263   0.000  1.00  0.00     0.047 A 
HETATM    2  C   UNL     1      -6.188  -2.799   0.000  1.00  0.00     0.031 A 
HETATM    3  C   UNL     1      -4.761  -4.763   0.000  1.00  0.00     0.052 A 
HETATM    4  C   UNL     1      -7.070  -4.013   0.000  1.00  0.00     0.106 A 
HETATM    5  C   UNL     1      -3.647  -5.766   0.000  1.00  0.00     0.067 A 
HETATM    6  C   UNL     1      -6.500  -6.693   0.000  1.00  0.00     0.048 A 
HETATM    7  C   UNL     1      -5.385  -7.697   0.000  1.00  0.00     0.045 A 
HETATM    8  C   UNL     1      -7.926  -7.157   0.000  1.00  0.00     0.045 A 
HETATM    9  C   UNL     1      -5.697  -9.164   0.000  1.00  0.00     0.045 A 
HETATM   10  C   UNL     1      -8.238  -8.624   0.000  1.00  0.00     0.007 A 
HETATM   11  C   UNL     1      -7.123  -9.628   0.000  1.00  0.00     0.007 A 
HETATM   12  N   UNL     1      -6.188  -5.226   0.000  1.00  0.00    -0.332 N 
HETATM   13  N   UNL     1      -3.958  -7.234   0.000  1.00  0.00    -0.355 N 
HETATM   14  H   UNL     1      -2.844  -8.237   0.000  1.00  0.00     0.166 HD
ENDROOT
BRANCH   5  15
HETATM   15  C   UNL     1      -2.220  -5.303   0.000  1.00  0.00     0.025 A 
HETATM   16  C   UNL     1      -1.908  -3.836   0.000  1.00  0.00     0.064 A 
HETATM   17  C   UNL     1      -0.481  -3.372   0.000  1.00  0.00     0.023 A 
HETATM   18 CL   UNL     1      -0.170  -1.905   0.000  1.00  0.00    -0.091 Cl
HETATM   19  C   UNL     1       0.633  -4.376   0.000  1.00  0.00     0.074 A 
HETATM   20  C   UNL     1       0.321  -5.843   0.000  1.00  0.00     0.066 A 
HETATM   21 CL   UNL     1       1.436  -6.847   0.000  1.00  0.00    -0.085 Cl
HETATM   22  C   UNL     1      -1.105  -6.307   0.000  1.00  0.00     0.136 A 
HETATM   23  O   UNL     1      -1.417  -7.774   0.000  1.00  0.00    -0.190 OA
ENDBRANCH   5  15
TORSDOF 1
