REMARK  0 active torsions:
REMARK  status: ('A' for Active; 'I' for Inactive)
ROOT
HETATM    1  C   UNL     1       7.245   5.250   0.000  1.00  0.00     0.096 A 
HETATM    2  C   UNL     1       2.049   5.250   0.000  1.00  0.00     0.034 A 
HETATM    3  C   UNL     1       8.544   4.500   0.000  1.00  0.00     0.142 A 
HETATM    4  C   UNL     1       5.946   4.500   0.000  1.00  0.00     0.050 A 
HETATM    5  C   UNL     1       3.348   4.500   0.000  1.00  0.00     0.018 A 
HETATM    6  C   UNL     1       0.750   4.500   0.000  1.00  0.00     0.006 A 
HETATM    7  C   UNL     1       5.946   3.000   0.000  1.00  0.00     0.164 A 
HETATM    8  C   UNL     1       3.348   3.000   0.000  1.00  0.00     0.037 A 
HETATM    9  C   UNL     1       0.750   3.000   0.000  1.00  0.00     0.007 A 
HETATM   10  C   UNL     1       2.049   2.250   0.000  1.00  0.00     0.044 A 
HETATM   11  S   UNL     1       4.647   5.250   0.000  1.00  0.00    -0.091 SA
HETATM   12  N   UNL     1       4.647   2.250   0.000  1.00  0.00    -0.340 N 
HETATM   13  H   UNL     1       4.647   0.750   0.000  1.00  0.00     0.167 HD
HETATM   14  N   UNL     1       7.245   2.250   0.000  1.00  0.00    -0.130 NA
HETATM   15  N   UNL     1       8.544   3.000   0.000  1.00  0.00    -0.139 NA
HETATM   16 CL   UNL     1       9.843   5.250   0.000  1.00  0.00    -0.064 Cl
ENDROOT
TORSDOF 0
