REMARK  2 active torsions:
REMARK  status: ('A' for Active; 'I' for Inactive)
REMARK    1  A    between atoms: C_2  and  O_21 
REMARK    2  A    between atoms: O_21  and  C_22 
ROOT
HETATM    1  N   UNL     1      -2.223   3.650   0.000  1.00  0.00    -0.254 NA
HETATM    2  C   UNL     1       1.674  10.399   0.000  1.00  0.00     0.120 A 
HETATM    3  C   UNL     1       0.375  11.149   0.000  1.00  0.00     0.036 A 
HETATM    4  C   UNL     1       1.674   8.899   0.000  1.00  0.00     0.057 A 
HETATM    5  C   UNL     1       0.375   8.149   0.000  1.00  0.00    -0.010 A 
HETATM    6  C   UNL     1      -0.924  10.399   0.000  1.00  0.00     0.048 A 
HETATM    7  C   UNL     1      -0.924   8.899   0.000  1.00  0.00     0.055 A 
HETATM    8  C   UNL     1      -2.223   6.649   0.000  1.00  0.00     0.079 A 
HETATM    9  C   UNL     1      -0.924   5.899   0.000  1.00  0.00     0.027 A 
HETATM   10  C   UNL     1       0.375   6.649   0.000  1.00  0.00    -0.022 A 
HETATM   11  C   UNL     1       1.674   5.899   0.000  1.00  0.00     0.027 A 
HETATM   12  C   UNL     1      -3.522   5.899   0.000  1.00  0.00     0.009 A 
HETATM   13  C   UNL     1      -4.821   6.649   0.000  1.00  0.00     0.029 A 
HETATM   14  C   UNL     1      -6.120   5.899   0.000  1.00  0.00     0.005 A 
HETATM   15  C   UNL     1       1.674   4.399   0.000  1.00  0.00     0.011 A 
HETATM   16  C   UNL     1      -0.924   4.399   0.000  1.00  0.00     0.060 A 
HETATM   17  C   UNL     1      -3.522   4.399   0.000  1.00  0.00     0.056 A 
HETATM   18  C   UNL     1      -6.120   4.399   0.000  1.00  0.00     0.007 A 
HETATM   19  C   UNL     1       0.375   3.650   0.000  1.00  0.00     0.046 A 
HETATM   20  C   UNL     1      -4.821   3.650   0.000  1.00  0.00     0.045 A 
HETATM   21  N   UNL     1      -2.223   8.149   0.000  1.00  0.00    -0.251 NA
ENDROOT
BRANCH   2  22
HETATM   22  O   UNL     1       2.973  11.149   0.000  1.00  0.00    -0.356 OA
BRANCH  22  23
HETATM   23  C   UNL     1       2.973  12.649   0.000  1.00  0.00     0.142 C 
HETATM   24  C   UNL     1       1.674  13.399   0.000  1.00  0.00     0.035 C 
ENDBRANCH  22  23
ENDBRANCH   2  22
TORSDOF 2
