REMARK  5 active torsions:
REMARK  status: ('A' for Active; 'I' for Inactive)
REMARK    1  A    between atoms: C_2  and  O_19 
REMARK    2  A    between atoms: C_8  and  N_22 
REMARK    3  A    between atoms: S_10  and  C_11 
REMARK    4  A    between atoms: S_10  and  N_22 
REMARK    5  A    between atoms: O_19  and  C_20 
ROOT
HETATM    1  C   UNL     1     -12.198   5.078   0.000  1.00  0.00     0.035 A 
HETATM    2  C   UNL     1     -12.948   3.779   0.000  1.00  0.00     0.122 A 
HETATM    3  C   UNL     1     -12.198   2.480   0.000  1.00  0.00     0.076 A 
HETATM    4  C   UNL     1     -10.698   2.480   0.000  1.00  0.00     0.066 A 
HETATM    5  C   UNL     1      -9.948   3.779   0.000  1.00  0.00     0.024 A 
HETATM    6  C   UNL     1     -10.698   5.078   0.000  1.00  0.00     0.037 A 
HETATM    7  N   UNL     1      -9.694   1.365   0.000  1.00  0.00    -0.225 NA
HETATM    8  C   UNL     1      -8.324   1.976   0.000  1.00  0.00     0.205 A 
HETATM    9  S   UNL     1      -8.480   3.467   0.000  1.00  0.00    -0.051 SA
ENDROOT
BRANCH   8  10
HETATM   10  N   UNL     1      -7.024   1.226   0.000  1.00  0.00    -0.136 NA
BRANCH  10  11
HETATM   11  S   UNL     1      -7.024  -0.275   0.000  1.00  0.00     0.265 S 
HETATM   12  O   UNL     1      -8.524  -0.275   0.000  1.00  0.00    -0.203 OA
HETATM   13  O   UNL     1      -7.024  -1.774   0.000  1.00  0.00    -0.203 OA
BRANCH  11  14
HETATM   14  C   UNL     1      -5.524  -0.275   0.000  1.00  0.00     0.130 A 
HETATM   15  C   UNL     1      -4.774  -1.574   0.000  1.00  0.00     0.020 A 
HETATM   16  C   UNL     1      -3.275  -1.574   0.000  1.00  0.00     0.040 A 
HETATM   17  C   UNL     1      -2.525  -0.275   0.000  1.00  0.00     0.302 A 
HETATM   18  C   UNL     1      -3.275   1.024   0.000  1.00  0.00     0.040 A 
HETATM   19  N   UNL     1      -1.024  -0.275   0.000  1.00  0.00     0.616 N 
HETATM   20  C   UNL     1      -4.774   1.024   0.000  1.00  0.00     0.020 A 
ENDBRANCH  11  14
ENDBRANCH  10  11
ENDBRANCH   8  10
BRANCH   2  21
HETATM   21  O   UNL     1     -14.448   3.779   0.000  1.00  0.00    -0.356 OA
BRANCH  21  22
HETATM   22  C   UNL     1     -15.198   5.078   0.000  1.00  0.00     0.142 C 
HETATM   23  C   UNL     1     -16.698   5.078   0.000  1.00  0.00     0.035 C 
ENDBRANCH  21  22
ENDBRANCH   2  21
TORSDOF 5
