REMARK  4 active torsions:
REMARK  status: ('A' for Active; 'I' for Inactive)
REMARK    1  A    between atoms: C_3  and  O_11 
REMARK    2  A    between atoms: C_4  and  C_18 
REMARK    3  A    between atoms: C_18  and  O_19 
REMARK    4  A    between atoms: O_19  and  C_22 
ROOT
HETATM    1  C   UNL     1      -4.840  -3.101   0.000  1.00  0.00     0.036 A 
HETATM    2  C   UNL     1      -3.765  -2.055   0.000  1.00  0.00     0.047 A 
HETATM    3  C   UNL     1      -4.472  -4.555   0.000  1.00  0.00     0.120 A 
HETATM    4  C   UNL     1       1.375  -0.897   0.000  1.00  0.00     0.099 A 
HETATM    5  C   UNL     1       0.197  -1.825   0.000  1.00  0.00     0.121 A 
HETATM    6  C   UNL     1      -2.322  -2.463   0.000  1.00  0.00     0.049 A 
HETATM    7  C   UNL     1      -3.028  -4.963   0.000  1.00  0.00     0.050 A 
HETATM    8  C   UNL     1       2.622  -1.731   0.000  1.00  0.00     0.135 A 
HETATM    9  C   UNL     1       0.715  -3.232   0.000  1.00  0.00     0.152 A 
HETATM   10  C   UNL     1      -1.953  -3.917   0.000  1.00  0.00    -0.033 A 
HETATM   11  H   UNL     1      -1.615  -4.380   0.000  1.00  0.00     0.222 HD
HETATM   12  N   UNL     1      -0.119  -4.479   0.000  1.00  0.00    -0.277 NA
HETATM   13  N   UNL     1      -1.247  -1.417   0.000  1.00  0.00    -0.247 NA
HETATM   14  N   UNL     1       2.214  -3.174   0.000  1.00  0.00    -0.327 N 
HETATM   15  H   UNL     1       3.142  -4.353   0.000  1.00  0.00     0.168 HD
HETATM   16  N   UNL     1       4.029  -1.212   0.000  1.00  0.00    -0.082 NA
ENDROOT
BRANCH   4  17
HETATM   17  C   UNL     1       1.578   0.590   0.000  1.00  0.00     0.232 C 
HETATM   18  O   UNL     1       0.393   1.508   0.000  1.00  0.00    -0.163 OA
BRANCH  17  19
HETATM   19  O   UNL     1       2.967   1.157   0.000  1.00  0.00    -0.309 OA
BRANCH  19  20
HETATM   20  C   UNL     1       3.170   2.643   0.000  1.00  0.00     0.151 C 
HETATM   21  C   UNL     1       1.984   3.562   0.000  1.00  0.00     0.035 C 
ENDBRANCH  19  20
ENDBRANCH  17  19
ENDBRANCH   4  17
BRANCH   3  22
HETATM   22  O   UNL     1      -5.547  -5.602   0.000  1.00  0.00    -0.354 OA
HETATM   23  C   UNL     1      -6.990  -5.194   0.000  1.00  0.00     0.174 C 
ENDBRANCH   3  22
TORSDOF 4
