REMARK  0 active torsions:
REMARK  status: ('A' for Active; 'I' for Inactive)
ROOT
HETATM    1  C   UNL     1       4.922   2.525   0.000  1.00  0.00     0.067 A 
HETATM    2  C   UNL     1       8.819   1.775   0.000  1.00  0.00     0.227 A 
HETATM    3  C   UNL     1       6.221   1.774   0.000  1.00  0.00     0.084 A 
HETATM    4  C   UNL     1       3.623   1.774   0.000  1.00  0.00    -0.019 A 
HETATM    5  C   UNL     1       6.221   0.275   0.000  1.00  0.00     0.011 A 
HETATM    6  C   UNL     1       3.623   0.275   0.000  1.00  0.00    -0.043 A 
HETATM    7  C   UNL     1       7.520  -0.475   0.000  1.00  0.00     0.029 A 
HETATM    8  C   UNL     1       4.922  -0.475   0.000  1.00  0.00     0.051 A 
HETATM    9  N   UNL     1       7.520   2.525   0.000  1.00  0.00    -0.246 NA
HETATM   10  N   UNL     1       8.819   0.275   0.000  1.00  0.00    -0.357 N 
HETATM   11  H   UNL     1      10.118  -0.475   0.000  1.00  0.00     0.162 HD
HETATM   12  C   UNL     1       2.324  -0.475   0.000  1.00  0.00     0.026 C 
HETATM   13  C   UNL     1       2.324   2.525   0.000  1.00  0.00     0.031 C 
HETATM   14  C   UNL     1       4.922   4.024   0.000  1.00  0.00     0.022 C 
HETATM   15  N   UNL     1       4.922   5.524   0.000  1.00  0.00    -0.096 N 
HETATM   16  C   UNL     1       7.520  -1.976   0.000  1.00  0.00     0.049 C 
ENDROOT
TORSDOF 0
