REMARK  2 active torsions:
REMARK  status: ('A' for Active; 'I' for Inactive)
REMARK    1  A    between atoms: C_6  and  C_11 
REMARK    2  A    between atoms: N_8  and  C_18 
ROOT
HETATM    1  C   UNL     1      -8.436  -5.003   0.000  1.00  0.00     0.216 A 
HETATM    2  C   UNL     1      -7.223  -5.885   0.000  1.00  0.00     0.073 A 
HETATM    3  C   UNL     1      -7.686  -7.311   0.000  1.00  0.00     0.084 A 
HETATM    4  N   UNL     1      -9.650  -5.885   0.000  1.00  0.00    -0.214 N 
HETATM    5  O   UNL     1      -8.436  -3.503   0.000  1.00  0.00    -0.169 OA
HETATM    6  N   UNL     1      -9.186  -7.311   0.000  1.00  0.00    -0.168 NA
HETATM    7  C   UNL     1      -6.804  -8.525   0.000  1.00  0.00     0.054 C 
ENDROOT
BRANCH   2   8
HETATM    8  C   UNL     1      -5.796  -5.421   0.000  1.00  0.00     0.086 A 
HETATM    9  S   UNL     1      -5.484  -3.954   0.000  1.00  0.00     0.046 SA
HETATM   10  O   UNL     1      -3.673  -3.321   0.000  1.00  0.00    -0.254 OA
HETATM   11  C   UNL     1      -2.791  -4.535   0.000  1.00  0.00     0.172 A 
HETATM   12  N   UNL     1      -1.291  -4.535   0.000  1.00  0.00    -0.316 N 
HETATM   13  C   UNL     1      -3.255  -5.962   0.000  1.00  0.00     0.056 A 
HETATM   14  C   UNL     1      -0.828  -5.962   0.000  1.00  0.00     0.174 A 
HETATM   15  H   UNL     1      -0.409  -3.321   0.000  1.00  0.00     0.170 HD
HETATM   16  O   UNL     1       0.599  -6.425   0.000  1.00  0.00    -0.176 OA
HETATM   17  C   UNL     1      -2.041  -6.843   0.000  1.00  0.00     0.109 A 
HETATM   18  S   UNL     1      -4.681  -6.425   0.000  1.00  0.00    -0.079 SA
ENDBRANCH   2   8
BRANCH   4  19
HETATM   19  C   UNL     1     -11.076  -5.421   0.000  1.00  0.00     0.041 A 
HETATM   20  C   UNL     1     -12.191  -6.425   0.000  1.00  0.00     0.042 A 
HETATM   21  C   UNL     1     -13.617  -5.962   0.000  1.00  0.00     0.006 A 
HETATM   22  C   UNL     1     -13.929  -4.494   0.000  1.00  0.00     0.001 A 
HETATM   23  C   UNL     1     -12.815  -3.491   0.000  1.00  0.00     0.006 A 
HETATM   24  C   UNL     1     -11.388  -3.954   0.000  1.00  0.00     0.042 A 
ENDBRANCH   4  19
TORSDOF 2
