REMARK  0 active torsions:
REMARK  status: ('A' for Active; 'I' for Inactive)
ROOT
HETATM    1  C   UNL     1      -6.132   6.463   0.000  1.00  0.00     0.060 A 
HETATM    2  C   UNL     1      -7.558   6.000   0.000  1.00  0.00     0.170 A 
HETATM    3  C   UNL     1      -6.132   4.037   0.000  1.00  0.00     0.136 A 
HETATM    4  N   UNL     1      -7.558   4.500   0.000  1.00  0.00    -0.248 NA
HETATM    5  N   UNL     1      -5.250   5.250   0.000  1.00  0.00    -0.303 N 
HETATM    6  C   UNL     1      -3.750   5.250   0.000  1.00  0.00     0.143 A 
HETATM    7  C   UNL     1      -2.250   5.250   0.000  1.00  0.00    -0.126 C 
HETATM    8  C   UNL     1      -3.750   3.750   0.000  1.00  0.00    -0.013 A 
HETATM    9  C   UNL     1      -2.451   3.000   0.000  1.00  0.00     0.025 A 
HETATM   10  C   UNL     1      -2.451   1.500   0.000  1.00  0.00     0.005 A 
HETATM   11  C   UNL     1      -3.750   0.750   0.000  1.00  0.00     0.005 A 
HETATM   12  C   UNL     1      -5.049   1.500   0.000  1.00  0.00     0.029 A 
HETATM   13  C   UNL     1      -5.049   3.000   0.000  1.00  0.00     0.007 A 
HETATM   14  C   UNL     1      -3.750   6.750   0.000  1.00  0.00    -0.015 A 
HETATM   15  C   UNL     1      -5.049   7.500   0.000  1.00  0.00    -0.013 A 
HETATM   16  C   UNL     1      -5.049   9.000   0.000  1.00  0.00     0.027 A 
HETATM   17  C   UNL     1      -3.750   9.750   0.000  1.00  0.00     0.005 A 
HETATM   18  C   UNL     1      -2.451   9.000   0.000  1.00  0.00     0.005 A 
HETATM   19  C   UNL     1      -2.451   7.500   0.000  1.00  0.00     0.025 A 
HETATM   20  C   UNL     1      -0.750   5.250   0.000  1.00  0.00     0.078 C 
ENDROOT
TORSDOF 0
