REMARK  5 active torsions:
REMARK  status: ('A' for Active; 'I' for Inactive)
REMARK    1  A    between atoms: C_3  and  C_11 
REMARK    2  A    between atoms: C_4  and  N_8 
REMARK    3  A    between atoms: N_6  and  C_11 
REMARK    4  A    between atoms: N_6  and  C_12 
REMARK    5  A    between atoms: C_12  and  C_13 
ROOT
HETATM    1  C   UNL     1      -0.059  -3.882   0.000  1.00  0.00     0.041 A 
HETATM    2  C   UNL     1       0.199  -5.359   0.000  1.00  0.00     0.079 A 
HETATM    3  C   UNL     1       1.266  -3.179   0.000  1.00  0.00     0.148 A 
HETATM    4  C   UNL     1       1.684  -5.570   0.000  1.00  0.00     0.199 A 
HETATM    5  O   UNL     1       2.344  -4.223   0.000  1.00  0.00    -0.315 OA
ENDROOT
BRANCH   3   6
HETATM    6  C   UNL     1       1.477  -1.694   0.000  1.00  0.00     0.160 C 
BRANCH   6   7
HETATM    7  N   UNL     1       2.869  -1.135   0.000  1.00  0.00    -0.223 N 
HETATM    8  O   UNL     1       4.049  -2.060   0.000  1.00  0.00    -0.089 OA
BRANCH   7   9
HETATM    9  C   UNL     1       3.080   0.350   0.000  1.00  0.00     0.166 C 
BRANCH   9  10
HETATM   10  C   UNL     1       1.899   1.276   0.000  1.00  0.00     0.209 C 
HETATM   11  O   UNL     1       2.110   2.761   0.000  1.00  0.00    -0.218 OA
ENDBRANCH   9  10
ENDBRANCH   7   9
ENDBRANCH   6   7
ENDBRANCH   3   6
BRANCH   4  12
HETATM   12  N   UNL     1       2.386  -6.896   0.000  1.00  0.00    -0.094 N 
HETATM   13  O   UNL     1       1.589  -8.167   0.000  1.00  0.00    -0.530 OA
HETATM   14  O   UNL     1       3.885  -6.950   0.000  1.00  0.00    -0.530 OA
ENDBRANCH   4  12
TORSDOF 5
