REMARK  1 active torsions:
REMARK  status: ('A' for Active; 'I' for Inactive)
REMARK    1  A    between atoms: C_12  and  C_17 
ROOT
HETATM    1  C   UNL     1       2.324   2.525   0.000  1.00  0.00     0.006 A 
HETATM    2  C   UNL     1       2.324   1.024   0.000  1.00  0.00     0.007 A 
HETATM    3  C   UNL     1       3.623   3.275   0.000  1.00  0.00     0.034 A 
HETATM    4  C   UNL     1       3.623   0.275   0.000  1.00  0.00     0.044 A 
HETATM    5  C   UNL     1       4.922   2.525   0.000  1.00  0.00     0.019 A 
HETATM    6  C   UNL     1       4.922   1.024   0.000  1.00  0.00     0.039 A 
HETATM    7  S   UNL     1       6.221   3.275   0.000  1.00  0.00    -0.093 SA
HETATM    8  N   UNL     1       6.221   0.275   0.000  1.00  0.00    -0.331 N 
HETATM    9  C   UNL     1       7.520   2.525   0.000  1.00  0.00     0.022 A 
HETATM   10  C   UNL     1       7.520   1.024   0.000  1.00  0.00     0.054 A 
HETATM   11  C   UNL     1       7.520  -1.976   0.000  1.00  0.00     0.082 A 
HETATM   12  C   UNL     1       7.520  -3.475   0.000  1.00  0.00     0.225 A 
HETATM   13  C   UNL     1       8.819   0.275   0.000  1.00  0.00    -0.029 A 
HETATM   14  C   UNL     1       8.819   3.275   0.000  1.00  0.00     0.035 A 
HETATM   15  C   UNL     1      10.118   1.024   0.000  1.00  0.00     0.024 A 
HETATM   16  C   UNL     1      10.118   2.525   0.000  1.00  0.00     0.010 A 
HETATM   17  C   UNL     1       8.270  -2.176   0.000  1.00  0.00     0.068 A 
HETATM   18  C   UNL     1       8.270  -3.275   0.000  1.00  0.00     0.225 A 
HETATM   19  C   UNL     1       8.819  -1.226   0.000  1.00  0.00     0.028 A 
HETATM   20  N   UNL     1       8.819  -4.226   0.000  1.00  0.00     0.133 N 
HETATM   21  C   UNL     1      10.118  -1.976   0.000  1.00  0.00     0.039 A 
HETATM   22  C   UNL     1      10.118  -3.475   0.000  1.00  0.00     0.250 A 
HETATM   23  C   UNL     1       6.221  -1.226   0.000  1.00  0.00     0.110 A 
ENDROOT
TORSDOF 1
