REMARK  4 active torsions:
REMARK  status: ('A' for Active; 'I' for Inactive)
REMARK    1  A    between atoms: C_1  and  C_8 
REMARK    2  A    between atoms: C_3  and  O_5 
REMARK    3  A    between atoms: C_8  and  C_9 
REMARK    4  A    between atoms: C_9  and  C_10 
ROOT
HETATM    1  C   UNL     1       3.165   5.243   0.000  1.00  0.00     0.144 A 
HETATM    2  C   UNL     1       3.165   3.743   0.000  1.00  0.00     0.082 A 
HETATM    3  C   UNL     1       1.738   3.280   0.000  1.00  0.00     0.220 A 
HETATM    4  N   UNL     1       0.856   4.493   0.000  1.00  0.00    -0.055 NA
HETATM    5  O   UNL     1       1.738   5.707   0.000  1.00  0.00    -0.267 OA
ENDROOT
BRANCH   1   6
HETATM    6  C   UNL     1       4.378   6.125   0.000  1.00  0.00     0.043 C 
BRANCH   6   7
HETATM    7  C   UNL     1       4.221   7.617   0.000  1.00  0.00     0.100 C 
BRANCH   7   8
HETATM    8  C   UNL     1       5.435   8.498   0.000  1.00  0.00     0.185 C 
HETATM    9  O   UNL     1       5.278   9.990   0.000  1.00  0.00    -0.647 OA
HETATM   10  O   UNL     1       6.805   7.888   0.000  1.00  0.00    -0.647 OA
ENDBRANCH   7   8
ENDBRANCH   6   7
ENDBRANCH   1   6
BRANCH   3  11
HETATM   11  O   UNL     1       1.274   1.853   0.000  1.00  0.00    -0.335 OA
HETATM   12  C   UNL     1      -0.193   1.541   0.000  1.00  0.00     0.176 C 
ENDBRANCH   3  11
TORSDOF 4
