REMARK  0 active torsions:
REMARK  status: ('A' for Active; 'I' for Inactive)
ROOT
HETATM    1  C   UNL     1      -3.348  -2.250   0.000  1.00  0.00     0.029 A 
HETATM    2  C   UNL     1      -5.946  -2.250   0.000  1.00  0.00    -0.032 A 
HETATM    3  C   UNL     1      -2.049  -3.000   0.000  1.00  0.00     0.029 A 
HETATM    4  C   UNL     1      -4.647  -3.000   0.000  1.00  0.00    -0.009 A 
HETATM    5  C   UNL     1      -7.245  -3.000   0.000  1.00  0.00    -0.043 A 
HETATM    6  C   UNL     1      -2.049  -4.500   0.000  1.00  0.00     0.126 A 
HETATM    7  C   UNL     1      -4.647  -4.500   0.000  1.00  0.00     0.081 A 
HETATM    8  C   UNL     1      -7.245  -4.500   0.000  1.00  0.00     0.064 A 
HETATM    9  C   UNL     1      -5.946  -5.250   0.000  1.00  0.00     0.069 A 
HETATM   10  N   UNL     1      -3.348  -5.250   0.000  1.00  0.00    -0.270 NA
HETATM   11  C   UNL     1      -8.544  -2.250   0.000  1.00  0.00     0.026 C 
HETATM   12  C   UNL     1      -5.946  -0.750   0.000  1.00  0.00     0.030 C 
HETATM   13  N   UNL     1      -5.946  -6.750   0.000  1.00  0.00    -0.103 NA
HETATM   14  C   UNL     1      -0.750  -2.250   0.000  1.00  0.00     0.002 C 
ENDROOT
TORSDOF 0
