REMARK  2 active torsions:
REMARK  status: ('A' for Active; 'I' for Inactive)
REMARK    1  A    between atoms: C_4  and  N_17 
REMARK    2  A    between atoms: C_7  and  N_17 
ROOT
HETATM    1  N   UNL     1      -0.663   1.275   0.000  1.00  0.00    -0.193 NA
ENDROOT
BRANCH   1   2
HETATM    2  C   UNL     1       0.837   1.295   0.000  1.00  0.00     0.231 A 
HETATM    3  N   UNL     1       1.702   2.520   0.000  1.00  0.00    -0.215 NA
HETATM    4  C   UNL     1       3.135   2.076   0.000  1.00  0.00     0.073 A 
HETATM    5  C   UNL     1       4.423   2.843   0.000  1.00  0.00     0.047 A 
HETATM    6  C   UNL     1       3.155   0.576   0.000  1.00  0.00     0.050 A 
HETATM    7  C   UNL     1       5.732   2.110   0.000  1.00  0.00     0.007 A 
HETATM    8  C   UNL     1       5.752   0.611   0.000  1.00  0.00     0.007 A 
HETATM    9  C   UNL     1       4.463  -0.157   0.000  1.00  0.00     0.045 A 
HETATM   10  N   UNL     1       1.734   0.093   0.000  1.00  0.00    -0.326 N 
HETATM   11  H   UNL     1       1.290  -1.339   0.000  1.00  0.00     0.169 HD
ENDBRANCH   1   2
BRANCH   1  12
HETATM   12  C   UNL     1      -1.396  -0.034   0.000  1.00  0.00     0.164 A 
HETATM   13  C   UNL     1      -2.886  -0.210   0.000  1.00  0.00     0.013 A 
HETATM   14  C   UNL     1      -4.013   0.778   0.000  1.00  0.00     0.029 A 
HETATM   15  C   UNL     1      -3.178  -1.682   0.000  1.00  0.00     0.021 A 
HETATM   16  C   UNL     1      -5.434   0.296   0.000  1.00  0.00     0.005 A 
HETATM   17  C   UNL     1      -5.726  -1.175   0.000  1.00  0.00     0.005 A 
HETATM   18  C   UNL     1      -4.598  -2.164   0.000  1.00  0.00     0.030 A 
HETATM   19  C   UNL     1      -1.869  -2.414   0.000  1.00  0.00     0.210 A 
HETATM   20  O   UNL     1      -1.692  -3.904   0.000  1.00  0.00    -0.170 OA
HETATM   21  N   UNL     1      -0.768  -1.396   0.000  1.00  0.00    -0.201 NA
ENDBRANCH   1  12
TORSDOF 2
