REMARK  7 active torsions:
REMARK  status: ('A' for Active; 'I' for Inactive)
REMARK    1  A    between atoms: C_2  and  C_12 
REMARK    2  A    between atoms: C_6  and  C_18 
REMARK    3  A    between atoms: C_7  and  C_8 
REMARK    4  A    between atoms: C_10  and  C_12 
REMARK    5  A    between atoms: C_11  and  N_19 
REMARK    6  A    between atoms: C_14  and  C_17 
REMARK    7  A    between atoms: C_17  and  C_18 
ROOT
HETATM    1  C   UNL     1       0.312  -0.128   0.000  1.00  0.00     0.057 A 
HETATM    2  C   UNL     1       0.312  -0.877   0.000  1.00  0.00     0.108 A 
HETATM    3  C   UNL     1       0.962  -1.252   0.000  1.00  0.00     0.206 A 
HETATM    4  N   UNL     1       1.611  -0.877   0.000  1.00  0.00     0.000 N 
HETATM    5  C   UNL     1       1.611  -0.128   0.000  1.00  0.00     0.003 A 
HETATM    6  C   UNL     1       0.962   0.247   0.000  1.00  0.00     0.007 A 
HETATM    7  C   UNL     1      -0.338   0.247   0.000  1.00  0.00     0.005 A 
HETATM    8  C   UNL     1       2.261   0.247   0.000  1.00  0.00     0.011 A 
HETATM    9  C   UNL     1       2.910  -0.128   0.000  1.00  0.00     0.065 A 
HETATM   10  C   UNL     1       3.560   0.247   0.000  1.00  0.00     0.040 A 
HETATM   11  C   UNL     1       3.560   0.997   0.000  1.00  0.00     0.180 A 
HETATM   12  C   UNL     1       2.910   1.372   0.000  1.00  0.00     0.180 A 
HETATM   13  C   UNL     1       2.261   0.997   0.000  1.00  0.00     0.035 A 
HETATM   14  O   UNL     1      -0.338   0.997   0.000  1.00  0.00     0.000 OA
HETATM   15  C   UNL     1       0.961  -2.002   0.000  1.00  0.00     0.373 A 
HETATM   16  F   UNL     1       0.211  -2.002   0.000  1.00  0.00    -0.334 F 
HETATM   17  F   UNL     1       0.960  -2.752   0.000  1.00  0.00    -0.172 F 
HETATM   18  F   UNL     1       1.711  -2.003   0.000  1.00  0.00    -0.323 F 
HETATM   19  C   UNL     1       4.209   1.372   0.000  1.00  0.00     0.321 A 
HETATM   20  F   UNL     1       3.833   2.022   0.000  1.00  0.00    -0.330 F 
HETATM   21  F   UNL     1       4.584   0.723   0.000  1.00  0.00    -0.330 F 
HETATM   22  F   UNL     1       4.858   1.748   0.000  1.00  0.00    -0.178 F 
ENDROOT
BRANCH   2  23
HETATM   23  C   UNL     1      -0.987  -0.877   0.000  1.00  0.00     0.019 A 
HETATM   24  C   UNL     1      -0.987  -0.128   0.000  1.00  0.00     0.057 A 
HETATM   25  N   UNL     1      -1.637   0.247   0.000  1.00  0.00     0.000 N 
HETATM   26  C   UNL     1      -1.637  -1.252   0.000  1.00  0.00    -0.003 A 
HETATM   27  C   UNL     1      -2.286  -0.128   0.000  1.00  0.00    -0.000 A 
HETATM   28  C   UNL     1      -2.286  -0.877   0.000  1.00  0.00     0.002 A 
ENDBRANCH   2  23
TORSDOF 7
