REMARK  4 active torsions:
REMARK  status: ('A' for Active; 'I' for Inactive)
REMARK    1  A    between atoms: C_5  and  S_19 
REMARK    2  A    between atoms: C_9  and  S_19 
REMARK    3  A    between atoms: C_18  and  O_26 
REMARK    4  A    between atoms: C_25  and  O_26 
ROOT
HETATM    1  C   UNL     1      -3.348  -2.250   0.000  1.00  0.00     0.151 A 
HETATM    2  C   UNL     1      -5.946  -2.250   0.000  1.00  0.00     0.042 A 
HETATM    3  C   UNL     1      -4.647  -3.000   0.000  1.00  0.00     0.029 A 
HETATM    4  C   UNL     1      -7.245  -3.000   0.000  1.00  0.00     0.059 A 
HETATM    5  C   UNL     1      -2.049  -4.500   0.000  1.00  0.00     0.238 A 
HETATM    6  C   UNL     1      -4.647  -4.500   0.000  1.00  0.00     0.101 A 
HETATM    7  C   UNL     1      -7.245  -4.500   0.000  1.00  0.00     0.064 A 
HETATM    8  C   UNL     1      -5.946  -5.250   0.000  1.00  0.00     0.090 A 
HETATM    9  N   UNL     1      -3.348  -5.250   0.000  1.00  0.00    -0.213 NA
HETATM   10  N   UNL     1      -2.049  -3.000   0.000  1.00  0.00    -0.201 NA
HETATM   11  N   UNL     1      -3.348  -0.750   0.000  1.00  0.00    -0.080 NA
HETATM   12  N   UNL     1      -0.750  -5.250   0.000  1.00  0.00    -0.060 NA
ENDROOT
BRANCH   4  13
HETATM   13  S   UNL     1      -8.544  -2.250   0.000  1.00  0.00    -0.141 SA
BRANCH  13  14
HETATM   14  C   UNL     1      -9.843  -3.000   0.000  1.00  0.00     0.052 A 
HETATM   15  C   UNL     1     -11.142  -2.250   0.000  1.00  0.00     0.032 A 
HETATM   16  C   UNL     1     -12.441  -3.000   0.000  1.00  0.00    -0.051 A 
HETATM   17  C   UNL     1     -13.740  -2.250   0.000  1.00  0.00     0.021 A 
HETATM   18  C   UNL     1     -12.441  -4.500   0.000  1.00  0.00    -0.052 A 
HETATM   19  C   UNL     1     -15.039  -3.000   0.000  1.00  0.00     0.005 A 
HETATM   20  C   UNL     1     -15.039  -4.500   0.000  1.00  0.00     0.005 A 
HETATM   21  C   UNL     1     -13.740  -5.250   0.000  1.00  0.00     0.021 A 
HETATM   22  C   UNL     1     -11.142  -5.250   0.000  1.00  0.00     0.022 A 
HETATM   23  C   UNL     1      -9.843  -4.500   0.000  1.00  0.00     0.015 A 
ENDBRANCH  13  14
ENDBRANCH   4  13
BRANCH   8  24
HETATM   24  O   UNL     1      -6.596  -6.750   0.000  1.00  0.00    -0.334 OA
BRANCH  24  25
HETATM   25  C   UNL     1      -7.895  -7.500   0.000  1.00  0.00     0.149 C 
HETATM   26  C   UNL     1      -9.194  -6.750   0.000  1.00  0.00     0.035 C 
ENDBRANCH  24  25
ENDBRANCH   8  24
TORSDOF 4
