REMARK  0 active torsions:
REMARK  status: ('A' for Active; 'I' for Inactive)
ROOT
HETATM    1  C   UNL     1      -4.075   1.324   0.000  1.00  0.00     0.056 A 
HETATM    2  C   UNL     1      -2.757   0.609   0.000  1.00  0.00     0.083 A 
HETATM    3  O   UNL     1      -2.477  -1.833   0.000  1.00  0.00    -0.335 OA
HETATM    4  N   UNL     1       2.079  -3.886   0.000  1.00  0.00    -0.375 N 
HETATM    5  O   UNL     1       2.458  -0.023   0.000  1.00  0.00    -0.310 OA
HETATM    6  C   UNL     1       3.929   2.119   0.000  1.00  0.00     0.016 A 
HETATM    7  C   UNL     1       2.692   2.968   0.000  1.00  0.00     0.026 A 
HETATM    8  C   UNL     1       2.603  -1.516   0.000  1.00  0.00     0.137 A 
HETATM    9  C   UNL     1       1.480  -2.511   0.000  1.00  0.00     0.134 A 
HETATM   10  C   UNL     1       3.896  -2.276   0.000  1.00  0.00     0.055 A 
HETATM   11  C   UNL     1      -0.013  -2.655   0.000  1.00  0.00     0.044 A 
HETATM   12  C   UNL     1      -0.336  -4.120   0.000  1.00  0.00     0.028 A 
HETATM   13  C   UNL     1       3.572  -3.741   0.000  1.00  0.00     0.099 A 
HETATM   14  C   UNL     1       0.957  -4.880   0.000  1.00  0.00     0.097 A 
HETATM   15  C   UNL     1      -4.790   0.005   0.000  1.00  0.00     0.164 A 
HETATM   16  O   UNL     1      -3.360   2.643   0.000  1.00  0.00     0.000 OA
HETATM   17  C   UNL     1      -4.145   3.921   0.000  1.00  0.00     0.000 C 
HETATM   18  O   UNL     1      -1.438  -0.106   0.000  1.00  0.00     0.000 OA
HETATM   19  C   UNL     1      -3.471  -0.710   0.000  1.00  0.00     0.214 A 
HETATM   20  O   UNL     1      -4.941  -1.010   0.000  1.00  0.00    -0.331 OA
HETATM   21  C   UNL     1       3.812   0.624   0.000  1.00  0.00     0.223 A 
HETATM   22  O   UNL     1       5.049  -0.225   0.000  1.00  0.00    -0.164 OA
HETATM   23  C   UNL     1       5.282   2.766   0.000  1.00  0.00     0.034 C 
HETATM   24  C   UNL     1       1.339   2.321   0.000  1.00  0.00    -0.014 A 
HETATM   25  C   UNL     1      -1.007  -1.532   0.000  1.00  0.00     0.122 A 
HETATM   26  C   UNL     1      -1.478   1.393   0.000  1.00  0.00     0.152 A 
HETATM   27  O   UNL     1      -2.263   2.672   0.000  1.00  0.00    -0.221 OA
HETATM   28  C   UNL     1      -0.200   2.178   0.000  1.00  0.00     0.003 A 
HETATM   29  C   UNL     1      -0.694   0.115   0.000  1.00  0.00     0.065 A 
ENDROOT
TORSDOF 0
