REMARK  1 active torsions:
REMARK  status: ('A' for Active; 'I' for Inactive)
REMARK    1  A    between atoms: C_1  and  C_11 
ROOT
HETATM    1  O   UNL     1       3.260  -7.098   0.000  1.00  0.00     0.000 OA
HETATM    2  O   UNL     1       4.010  -5.799   0.000  1.00  0.00     0.000 OA
HETATM    3  N   UNL     1       4.559 -10.848   0.000  1.00  0.00    -0.374 N 
HETATM    4  O   UNL     1       6.608  -5.799   0.000  1.00  0.00    -0.302 OA
HETATM    5  O   UNL     1       7.306  -4.112   0.000  1.00  0.00    -0.326 OA
HETATM    6  C   UNL     1       4.559  -2.250   0.000  1.00  0.00     0.035 A 
HETATM    7  C   UNL     1       5.858  -3.000   0.000  1.00  0.00     0.205 A 
HETATM    8  C   UNL     1       3.260  -3.000   0.000  1.00  0.00     0.002 A 
HETATM    9  C   UNL     1       5.858  -4.500   0.000  1.00  0.00     0.271 A 
HETATM   10  C   UNL     1       3.260  -4.500   0.000  1.00  0.00    -0.006 A 
HETATM   11  C   UNL     1       2.510  -5.799   0.000  1.00  0.00    -0.001 A 
HETATM   12  C   UNL     1       5.858  -7.098   0.000  1.00  0.00     0.112 A 
HETATM   13  C   UNL     1       5.858  -8.598   0.000  1.00  0.00    -0.007 A 
HETATM   14  C   UNL     1       4.559  -9.348   0.000  1.00  0.00     0.119 A 
HETATM   15  C   UNL     1       6.918  -9.659   0.000  1.00  0.00     0.049 A 
HETATM   16  C   UNL     1       3.260  -8.598   0.000  1.00  0.00     0.033 A 
HETATM   17  C   UNL     1       2.199  -9.659   0.000  1.00  0.00     0.019 A 
HETATM   18  C   UNL     1       6.168 -10.958   0.000  1.00  0.00     0.101 A 
HETATM   19  C   UNL     1       2.949 -10.958   0.000  1.00  0.00     0.096 A 
HETATM   20  C   UNL     1       4.559  -0.750   0.000  1.00  0.00     0.003 C 
HETATM   21  O   UNL     1       6.371  -1.591   0.000  1.00  0.00    -0.218 OA
HETATM   22  C   UNL     1       7.335  -3.260   0.000  1.00  0.00     0.180 A 
ENDROOT
BRANCH  10  23
HETATM   23  C   UNL     1       1.811  -4.112   0.000  1.00  0.00     0.013 C 
HETATM   24  C   UNL     1       0.750  -5.172   0.000  1.00  0.00    -0.007 C 
ENDBRANCH  10  23
TORSDOF 1
