REMARK  0 active torsions:
REMARK  status: ('A' for Active; 'I' for Inactive)
ROOT
HETATM    1  N   UNL     1      -7.520   0.475   0.000  1.00  0.00    -0.311 N 
HETATM    2  N   UNL     1      -7.520  -2.525   0.000  1.00  0.00    -0.241 NA
HETATM    3  N   UNL     1      -4.922   0.475   0.000  1.00  0.00    -0.186 NA
HETATM    4  O   UNL     1      -4.922  -4.024   0.000  1.00  0.00    -0.169 OA
HETATM    5  N   UNL     1      -3.623  -1.774   0.000  1.00  0.00    -0.295 N 
HETATM    6  H   UNL     1      -2.324  -2.525   0.000  1.00  0.00     0.171 HD
HETATM    7  O   UNL     1      -2.324   0.475   0.000  1.00  0.00    -0.149 OA
HETATM    8  C   UNL     1     -10.118   0.475   0.000  1.00  0.00     0.016 A 
HETATM    9  C   UNL     1      -8.819  -0.275   0.000  1.00  0.00     0.075 A 
HETATM   10  C   UNL     1     -11.417  -0.275   0.000  1.00  0.00     0.002 A 
HETATM   11  C   UNL     1      -8.819  -1.774   0.000  1.00  0.00     0.079 A 
HETATM   12  C   UNL     1     -11.417  -1.774   0.000  1.00  0.00    -0.040 A 
HETATM   13  C   UNL     1     -10.118  -2.525   0.000  1.00  0.00     0.069 A 
HETATM   14  C   UNL     1      -3.623  -0.275   0.000  1.00  0.00     0.281 A 
HETATM   15  C   UNL     1      -6.221  -0.275   0.000  1.00  0.00     0.169 A 
HETATM   16  C   UNL     1      -6.221  -1.774   0.000  1.00  0.00     0.157 A 
HETATM   17  C   UNL     1      -4.922  -2.525   0.000  1.00  0.00     0.214 A 
HETATM   18  C   UNL     1     -12.716   0.475   0.000  1.00  0.00     0.174 A 
HETATM   19  C   UNL     1     -12.716  -2.525   0.000  1.00  0.00     0.026 C 
HETATM   20  C   UNL     1      -7.520   1.976   0.000  1.00  0.00     0.108 A 
HETATM   21  C   UNL     1      -8.819   2.725   0.000  1.00  0.00     0.027 A 
HETATM   22  O   UNL     1     -10.118   1.976   0.000  1.00  0.00     0.000 OA
HETATM   23  C   UNL     1     -11.417   2.725   0.000  1.00  0.00     0.090 A 
HETATM   24  O   UNL     1     -12.716   1.976   0.000  1.00  0.00    -0.329 OA
HETATM   25  C   UNL     1     -11.417   4.226   0.000  1.00  0.00     0.060 C 
ENDROOT
TORSDOF 0
