REMARK  7 active torsions:
REMARK  status: ('A' for Active; 'I' for Inactive)
REMARK    1  A    between atoms: C_8  and  C_30 
REMARK    2  A    between atoms: C_9  and  C_11 
REMARK    3  A    between atoms: C_9  and  C_30 
REMARK    4  A    between atoms: C_17  and  C_18 
REMARK    5  A    between atoms: C_17  and  C_26 
REMARK    6  A    between atoms: C_25  and  C_26 
REMARK    7  A    between atoms: C_29  and  C_30 
ROOT
HETATM    1  O   UNL     1       2.223   6.649   0.000  1.00  0.00    -0.311 OA
HETATM    2  N   UNL     1       2.223   3.650   0.000  1.00  0.00    -0.271 NA
HETATM    3  N   UNL     1       7.419   6.649   0.000  1.00  0.00    -0.271 NA
HETATM    4  O   UNL     1       4.821   8.149   0.000  1.00  0.00    -0.311 OA
HETATM    5  C   UNL     1       6.120  10.399   0.000  1.00  0.00     0.036 A 
HETATM    6  C   UNL     1       6.120   8.899   0.000  1.00  0.00     0.074 A 
HETATM    7  C   UNL     1       6.986   8.899   0.000  1.00  0.00     0.029 A 
HETATM    8  C   UNL     1       7.419  11.149   0.000  1.00  0.00     0.005 A 
HETATM    9  C   UNL     1       8.718  10.399   0.000  1.00  0.00     0.003 A 
HETATM   10  C   UNL     1       7.419   8.149   0.000  1.00  0.00     0.120 A 
HETATM   11  C   UNL     1       8.718   8.899   0.000  1.00  0.00     0.026 A 
HETATM   12  C   UNL     1      -0.375   6.649   0.000  1.00  0.00     0.036 A 
HETATM   13  C   UNL     1      -1.674   5.899   0.000  1.00  0.00     0.005 A 
HETATM   14  C   UNL     1       0.924   5.899   0.000  1.00  0.00     0.074 A 
HETATM   15  C   UNL     1       0.491   5.149   0.000  1.00  0.00     0.029 A 
HETATM   16  C   UNL     1       0.924   4.399   0.000  1.00  0.00     0.120 A 
HETATM   17  C   UNL     1      -1.674   4.399   0.000  1.00  0.00     0.003 A 
HETATM   18  C   UNL     1      -0.375   3.650   0.000  1.00  0.00     0.026 A 
HETATM   19  C   UNL     1       4.821   6.649   0.000  1.00  0.00     0.136 A 
HETATM   20  C   UNL     1       3.522   5.899   0.000  1.00  0.00     0.136 A 
HETATM   21  C   UNL     1       6.120   5.899   0.000  1.00  0.00     0.079 A 
HETATM   22  C   UNL     1       6.120   4.399   0.000  1.00  0.00     0.054 A 
HETATM   23  C   UNL     1       3.522   4.399   0.000  1.00  0.00     0.079 A 
HETATM   24  C   UNL     1       4.821   3.650   0.000  1.00  0.00     0.054 A 
HETATM   25  C   UNL     1      -0.918   4.636   0.000  1.00  0.00     0.005 A 
HETATM   26  C   UNL     1      -0.918   5.662   0.000  1.00  0.00     0.007 A 
HETATM   27  C   UNL     1      -0.375   8.149   0.000  1.00  0.00     0.006 C 
HETATM   28  C   UNL     1       4.821  11.149   0.000  1.00  0.00     0.006 C 
HETATM   29  C   UNL     1       7.247  10.377   0.000  1.00  0.00     0.007 A 
HETATM   30  C   UNL     1       8.135   9.864   0.000  1.00  0.00     0.005 A 
ENDROOT
TORSDOF 7
