REMARK  2 active torsions:
REMARK  status: ('A' for Active; 'I' for Inactive)
REMARK    1  A    between atoms: C_5  and  N_16 
REMARK    2  A    between atoms: N_11  and  N_15 
REMARK       I    between atoms: C_12  and  N_15 
REMARK       I    between atoms: C_12  and  N_16 
ROOT
HETATM    1  C   UNL     1      -7.774   1.024   0.000  1.00  0.00     0.316 C 
HETATM    2  O   UNL     1      -7.024   2.324   0.000  1.00  0.00    -0.145 OA
HETATM    3  N   UNL     1      -9.274   1.024   0.000  1.00  0.00    -0.124 NA
HETATM    4  N   UNL     1      -7.024  -0.275   0.000  1.00  0.00    -0.211 NA
ENDROOT
BRANCH   3   5
HETATM    5  N   UNL     1     -10.024   2.324   0.000  1.00  0.00    -0.230 N 
HETATM    6  C   UNL     1      -9.414   3.694   0.000  1.00  0.00     0.232 A 
HETATM    7  N   UNL     1     -10.529   4.698   0.000  1.00  0.00    -0.103 NA
HETATM    8  N   UNL     1     -11.828   3.948   0.000  1.00  0.00    -0.103 NA
HETATM    9  C   UNL     1     -11.516   2.480   0.000  1.00  0.00     0.232 A 
ENDBRANCH   3   5
BRANCH   4  10
HETATM   10  C   UNL     1      -5.524  -0.275   0.000  1.00  0.00     0.045 A 
HETATM   11  C   UNL     1      -4.774   1.024   0.000  1.00  0.00     0.042 A 
HETATM   12  C   UNL     1      -3.275   1.024   0.000  1.00  0.00     0.011 A 
HETATM   13  C   UNL     1      -2.525  -0.275   0.000  1.00  0.00     0.034 A 
HETATM   14  C   UNL     1      -3.275  -1.574   0.000  1.00  0.00     0.019 A 
HETATM   15 CL   UNL     1      -2.525  -2.873   0.000  1.00  0.00    -0.091 Cl
HETATM   16  C   UNL     1      -4.774  -1.574   0.000  1.00  0.00     0.075 A 
ENDBRANCH   4  10
TORSDOF 2
