REMARK  3 active torsions:
REMARK  status: ('A' for Active; 'I' for Inactive)
REMARK    1  A    between atoms: C_6  and  C_9 
REMARK    2  A    between atoms: C_12  and  N_20 
REMARK    3  A    between atoms: C_13  and  N_20 
ROOT
HETATM    1  N   UNL     1       2.049  -5.250   0.000  1.00  0.00    -0.026 NA
HETATM    2  N   UNL     1       3.348  -3.000   0.000  1.00  0.00    -0.195 NA
HETATM    3  N   UNL     1       4.647  -5.250   0.000  1.00  0.00    -0.040 NA
HETATM    4  C   UNL     1       4.647  -3.750   0.000  1.00  0.00     0.178 A 
HETATM    5  C   UNL     1       2.049  -3.750   0.000  1.00  0.00     0.256 A 
HETATM    6  C   UNL     1       3.348  -6.000   0.000  1.00  0.00     0.753 A 
HETATM    7  N   UNL     1       0.750  -3.000   0.000  1.00  0.00    -0.059 NA
ENDROOT
BRANCH   6   8
HETATM    8  N   UNL     1       3.348  -7.500   0.000  1.00  0.00    -0.068 NA
BRANCH   8   9
HETATM    9  C   UNL     1       4.647  -8.250   0.000  1.00  0.00     0.055 A 
HETATM   10  C   UNL     1       5.946  -7.500   0.000  1.00  0.00     0.042 A 
HETATM   11  C   UNL     1       7.245  -8.250   0.000  1.00  0.00     0.006 A 
HETATM   12  C   UNL     1       7.245  -9.750   0.000  1.00  0.00     0.001 A 
HETATM   13  C   UNL     1       5.946 -10.500   0.000  1.00  0.00     0.006 A 
HETATM   14  C   UNL     1       4.647  -9.750   0.000  1.00  0.00     0.042 A 
ENDBRANCH   8   9
ENDBRANCH   6   8
BRANCH   4  15
HETATM   15  C   UNL     1       5.946  -3.000   0.000  1.00  0.00    -0.001 A 
HETATM   16  C   UNL     1       5.946  -1.500   0.000  1.00  0.00     0.028 A 
HETATM   17  C   UNL     1       7.245  -0.750   0.000  1.00  0.00     0.005 A 
HETATM   18  C   UNL     1       8.544  -1.500   0.000  1.00  0.00     0.004 A 
HETATM   19  C   UNL     1       8.544  -3.000   0.000  1.00  0.00     0.014 A 
HETATM   20  C   UNL     1       7.245  -3.750   0.000  1.00  0.00    -0.002 A 
ENDBRANCH   4  15
TORSDOF 3
