REMARK  1 active torsions:
REMARK  status: ('A' for Active; 'I' for Inactive)
REMARK    1  A    between atoms: N_10  and  C_12 
ROOT
HETATM    1  C   UNL     1      -1.024   4.774   0.000  1.00  0.00     0.005 A 
HETATM    2  C   UNL     1      -1.024   3.275   0.000  1.00  0.00     0.007 A 
HETATM    3  C   UNL     1       0.275   5.524   0.000  1.00  0.00     0.031 A 
HETATM    4  C   UNL     1       0.275   2.525   0.000  1.00  0.00     0.045 A 
HETATM    5  C   UNL     1       1.574   4.774   0.000  1.00  0.00     0.033 A 
HETATM    6  C   UNL     1       1.574   3.275   0.000  1.00  0.00     0.055 A 
HETATM    7  O   UNL     1       2.873   7.024   0.000  1.00  0.00    -0.171 OA
HETATM    8  N   UNL     1       2.873   2.525   0.000  1.00  0.00    -0.250 NA
HETATM    9  C   UNL     1       2.873   5.524   0.000  1.00  0.00     0.192 A 
HETATM   10  N   UNL     1       4.172   4.774   0.000  1.00  0.00    -0.293 N 
HETATM   11  C   UNL     1       4.172   3.275   0.000  1.00  0.00     0.236 A 
ENDROOT
BRANCH  10  12
HETATM   12  C   UNL     1       5.471   5.524   0.000  1.00  0.00     0.019 A 
HETATM   13  C   UNL     1       5.471   7.024   0.000  1.00  0.00     0.045 A 
HETATM   14  C   UNL     1       6.770   7.774   0.000  1.00  0.00     0.039 A 
HETATM   15  C   UNL     1       8.069   7.024   0.000  1.00  0.00     0.014 A 
HETATM   16  C   UNL     1       8.069   5.524   0.000  1.00  0.00     0.039 A 
HETATM   17 CL   UNL     1       9.368   7.774   0.000  1.00  0.00    -0.092 Cl
HETATM   18  C   UNL     1       6.770   4.774   0.000  1.00  0.00     0.045 A 
ENDBRANCH  10  12
TORSDOF 1
