REMARK  2 active torsions:
REMARK  status: ('A' for Active; 'I' for Inactive)
REMARK    1  A    between atoms: N_4  and  C_16 
REMARK    2  A    between atoms: C_14  and  C_15 
ROOT
HETATM    1  N   UNL     1      -3.321   1.588   0.000  1.00  0.00     0.018 NA
HETATM    2  N   UNL     1      -3.451   0.093   0.000  1.00  0.00     0.002 NA
HETATM    3  N   UNL     1      -1.859   1.926   0.000  1.00  0.00    -0.142 NA
HETATM    4  N   UNL     1      -2.070  -0.492   0.000  1.00  0.00    -0.229 N 
HETATM    5  C   UNL     1      -1.086   0.640   0.000  1.00  0.00     0.172 A 
ENDROOT
BRANCH   5   6
HETATM    6  C   UNL     1       0.408   0.510   0.000  1.00  0.00     0.010 A 
HETATM    7  C   UNL     1       1.268   1.739   0.000  1.00  0.00    -0.031 A 
HETATM    8  C   UNL     1       2.763   1.608   0.000  1.00  0.00    -0.048 A 
HETATM    9  C   UNL     1       0.634   3.098   0.000  1.00  0.00     0.025 A 
HETATM   10  C   UNL     1       3.623   2.837   0.000  1.00  0.00     0.022 A 
HETATM   11  C   UNL     1       3.397   0.249   0.000  1.00  0.00     0.022 A 
HETATM   12  C   UNL     1       2.988   4.197   0.000  1.00  0.00     0.005 A 
HETATM   13  C   UNL     1       1.494   4.327   0.000  1.00  0.00     0.005 A 
HETATM   14  C   UNL     1       2.537  -0.980   0.000  1.00  0.00     0.009 A 
HETATM   15  C   UNL     1       1.042  -0.850   0.000  1.00  0.00     0.029 A 
ENDBRANCH   5   6
BRANCH   4  16
HETATM   16  C   UNL     1      -1.732  -1.954   0.000  1.00  0.00     0.036 A 
HETATM   17  C   UNL     1      -0.298  -2.392   0.000  1.00  0.00     0.041 A 
HETATM   18  C   UNL     1       0.040  -3.853   0.000  1.00  0.00     0.006 A 
HETATM   19  C   UNL     1      -1.056  -4.877   0.000  1.00  0.00     0.001 A 
HETATM   20  C   UNL     1      -2.491  -4.438   0.000  1.00  0.00     0.006 A 
HETATM   21  C   UNL     1      -2.829  -2.977   0.000  1.00  0.00     0.041 A 
ENDBRANCH   4  16
TORSDOF 2
