REMARK  0 active torsions:
REMARK  status: ('A' for Active; 'I' for Inactive)
ROOT
HETATM    1  C   UNL     1       2.728  -2.776   0.000  1.00  0.00     0.031 A 
HETATM    2  C   UNL     1       1.429  -3.526   0.000  1.00  0.00     0.026 A 
HETATM    3  C   UNL     1       4.027  -3.526   0.000  1.00  0.00     0.126 A 
HETATM    4  C   UNL     1       1.429  -5.026   0.000  1.00  0.00    -0.023 A 
HETATM    5  C   UNL     1       2.728  -5.776   0.000  1.00  0.00     0.065 A 
HETATM    6  C   UNL     1       2.728  -7.276   0.000  1.00  0.00    -0.006 A 
HETATM    7  C   UNL     1       0.129  -7.276   0.000  1.00  0.00    -0.023 A 
HETATM    8  C   UNL     1      -2.469  -7.276   0.000  1.00  0.00     0.026 A 
HETATM    9  C   UNL     1       4.027  -8.026   0.000  1.00  0.00     0.028 A 
HETATM   10  C   UNL     1       1.429  -8.026   0.000  1.00  0.00    -0.009 A 
HETATM   11  C   UNL     1      -1.170  -8.026   0.000  1.00  0.00    -0.028 A 
HETATM   12  C   UNL     1      -3.768  -8.026   0.000  1.00  0.00     0.005 A 
HETATM   13  C   UNL     1       4.027  -9.526   0.000  1.00  0.00     0.009 A 
HETATM   14  C   UNL     1       1.429  -9.526   0.000  1.00  0.00     0.002 A 
HETATM   15  C   UNL     1      -1.170  -9.526   0.000  1.00  0.00    -0.001 A 
HETATM   16  C   UNL     1      -3.768  -9.526   0.000  1.00  0.00     0.005 A 
HETATM   17  C   UNL     1       2.728 -10.276   0.000  1.00  0.00     0.029 A 
HETATM   18  C   UNL     1       0.130 -10.276   0.000  1.00  0.00     0.123 A 
HETATM   19  C   UNL     1      -2.469 -10.276   0.000  1.00  0.00     0.028 A 
HETATM   20  O   UNL     1       0.130 -11.776   0.000  1.00  0.00    -0.191 OA
HETATM   21  N   UNL     1       4.027  -5.026   0.000  1.00  0.00    -0.272 NA
HETATM   22  C   UNL     1       0.129  -5.776   0.000  1.00  0.00     0.049 A 
ENDROOT
TORSDOF 0
