REMARK  3 active torsions:
REMARK  status: ('A' for Active; 'I' for Inactive)
REMARK    1  A    between atoms: C_1  and  N_13 
REMARK    2  A    between atoms: C_4  and  C_7 
REMARK    3  A    between atoms: C_10  and  N_22 
ROOT
HETATM    1  C   UNL     1     -14.367  -3.390   0.000  1.00  0.00     0.033 A 
HETATM    2  C   UNL     1     -13.617  -4.689   0.000  1.00  0.00    -0.028 A 
HETATM    3  C   UNL     1     -12.117  -4.689   0.000  1.00  0.00     0.044 A 
HETATM    4  C   UNL     1     -11.367  -3.390   0.000  1.00  0.00    -0.047 A 
HETATM    5  C   UNL     1     -12.117  -2.091   0.000  1.00  0.00     0.028 A 
HETATM    6  C   UNL     1     -13.617  -2.091   0.000  1.00  0.00     0.048 A 
HETATM    7  C   UNL     1     -14.367  -5.988   0.000  1.00  0.00     0.028 C 
ENDROOT
BRANCH   4   8
HETATM    8  C   UNL     1      -9.867  -3.390   0.000  1.00  0.00    -0.047 A 
HETATM    9  C   UNL     1      -9.117  -4.689   0.000  1.00  0.00     0.044 A 
HETATM   10  C   UNL     1      -7.617  -4.689   0.000  1.00  0.00    -0.028 A 
HETATM   11  C   UNL     1      -6.867  -3.390   0.000  1.00  0.00     0.033 A 
HETATM   12  C   UNL     1      -6.867  -5.988   0.000  1.00  0.00     0.028 C 
HETATM   13  C   UNL     1      -7.617  -2.091   0.000  1.00  0.00     0.048 A 
HETATM   14  C   UNL     1      -9.117  -2.091   0.000  1.00  0.00     0.028 A 
BRANCH  11  15
HETATM   15  N   UNL     1      -5.367  -3.390   0.000  1.00  0.00    -0.293 N 
HETATM   16  C   UNL     1      -4.485  -4.604   0.000  1.00  0.00     0.197 A 
HETATM   17  C   UNL     1      -3.058  -4.140   0.000  1.00  0.00     0.056 A 
HETATM   18  O   UNL     1      -4.948  -6.030   0.000  1.00  0.00    -0.203 OA
HETATM   19  C   UNL     1      -3.058  -5.640   0.000  1.00  0.00     0.053 A 
HETATM   20  C   UNL     1      -3.058  -2.640   0.000  1.00  0.00     0.070 A 
HETATM   21  C   UNL     1      -1.632  -3.677   0.000  1.00  0.00     0.013 A 
HETATM   22  C   UNL     1      -4.485  -2.177   0.000  1.00  0.00     0.172 A 
HETATM   23  O   UNL     1      -4.948  -0.750   0.000  1.00  0.00    -0.176 OA
HETATM   24  C   UNL     1      -0.750  -4.890   0.000  1.00  0.00     0.001 A 
HETATM   25  C   UNL     1      -1.632  -6.104   0.000  1.00  0.00     0.005 A 
ENDBRANCH  11  15
ENDBRANCH   4   8
BRANCH   1  26
HETATM   26  N   UNL     1     -15.867  -3.390   0.000  1.00  0.00    -0.293 N 
HETATM   27  C   UNL     1     -16.748  -2.177   0.000  1.00  0.00     0.172 A 
HETATM   28  C   UNL     1     -18.175  -2.640   0.000  1.00  0.00     0.070 A 
HETATM   29  O   UNL     1     -16.285  -0.750   0.000  1.00  0.00    -0.176 OA
HETATM   30  C   UNL     1     -18.175  -4.140   0.000  1.00  0.00     0.056 A 
HETATM   31  C   UNL     1     -19.601  -3.677   0.000  1.00  0.00     0.013 A 
HETATM   32  C   UNL     1     -16.748  -4.604   0.000  1.00  0.00     0.197 A 
HETATM   33  C   UNL     1     -18.175  -5.640   0.000  1.00  0.00     0.053 A 
HETATM   34  O   UNL     1     -16.285  -6.030   0.000  1.00  0.00    -0.203 OA
HETATM   35  C   UNL     1     -19.601  -6.104   0.000  1.00  0.00     0.005 A 
HETATM   36  C   UNL     1     -20.483  -4.890   0.000  1.00  0.00     0.001 A 
ENDBRANCH   1  26
TORSDOF 3
