REMARK  2 active torsions:
REMARK  status: ('A' for Active; 'I' for Inactive)
REMARK    1  A    between atoms: C_13  and  N_31 
REMARK    2  A    between atoms: C_19  and  C_21 
REMARK       I    between atoms: C_19  and  N_31 
ROOT
HETATM    1  C   UNL     1      -1.226   3.623   0.000  1.00  0.00     0.009 A 
HETATM    2  C   UNL     1       0.275   3.623   0.000  1.00  0.00     0.026 A 
HETATM    3  C   UNL     1       1.024   4.922   0.000  1.00  0.00    -0.026 A 
HETATM    4  C   UNL     1       0.275   6.221   0.000  1.00  0.00    -0.000 A 
HETATM    5  C   UNL     1      -1.226   6.221   0.000  1.00  0.00    -0.042 A 
HETATM    6  C   UNL     1      -1.976   4.922   0.000  1.00  0.00     0.022 A 
HETATM    7  C   UNL     1       1.024   7.520   0.000  1.00  0.00     0.037 A 
HETATM    8  N   UNL     1       0.275   8.819   0.000  1.00  0.00    -0.349 N 
HETATM    9  C   UNL     1      -1.226   8.819   0.000  1.00  0.00     0.105 A 
HETATM   10  C   UNL     1      -1.976   7.520   0.000  1.00  0.00     0.046 A 
HETATM   11  C   UNL     1       2.525   7.520   0.000  1.00  0.00     0.070 A 
HETATM   12  C   UNL     1       3.275   6.221   0.000  1.00  0.00    -0.007 A 
HETATM   13  C   UNL     1       4.774   6.221   0.000  1.00  0.00     0.057 A 
HETATM   14  C   UNL     1       5.524   4.922   0.000  1.00  0.00     0.046 A 
HETATM   15  C   UNL     1       4.774   3.623   0.000  1.00  0.00     0.011 A 
HETATM   16  C   UNL     1       3.275   3.623   0.000  1.00  0.00     0.026 A 
HETATM   17  C   UNL     1       2.525   4.922   0.000  1.00  0.00    -0.029 A 
HETATM   18  C   UNL     1       1.024  10.118   0.000  1.00  0.00     0.125 C 
ENDROOT
BRANCH  13  19
HETATM   19  N   UNL     1       5.524   7.520   0.000  1.00  0.00    -0.224 NA
HETATM   20  C   UNL     1       7.024   7.520   0.000  1.00  0.00     0.219 C 
HETATM   21  O   UNL     1       7.774   6.221   0.000  1.00  0.00    -0.169 OA
BRANCH  20  22
HETATM   22  C   UNL     1       7.774   8.819   0.000  1.00  0.00     0.083 A 
HETATM   23  C   UNL     1       9.266   8.976   0.000  1.00  0.00     0.063 A 
HETATM   24 CL   UNL     1      10.270   7.861   0.000  1.00  0.00    -0.082 Cl
HETATM   25  C   UNL     1       9.578  10.443   0.000  1.00  0.00    -0.009 A 
HETATM   26  C   UNL     1       8.279  11.193   0.000  1.00  0.00     0.004 A 
HETATM   27  C   UNL     1      10.877  11.193   0.000  1.00  0.00     0.027 A 
HETATM   28  S   UNL     1       7.164  10.189   0.000  1.00  0.00    -0.087 SA
HETATM   29  C   UNL     1       8.279  12.693   0.000  1.00  0.00     0.033 A 
HETATM   30  C   UNL     1       9.578  13.443   0.000  1.00  0.00     0.005 A 
HETATM   31  C   UNL     1      10.877  12.693   0.000  1.00  0.00     0.005 A 
ENDBRANCH  20  22
ENDBRANCH  13  19
TORSDOF 2
