REMARK  4 active torsions:
REMARK  status: ('A' for Active; 'I' for Inactive)
REMARK    1  A    between atoms: C_12  and  C_20 
REMARK    2  A    between atoms: C_13  and  C_20 
REMARK    3  A    between atoms: C_14  and  N_25 
REMARK    4  A    between atoms: C_15  and  N_25 
ROOT
HETATM    1  C   UNL     1       8.927   0.033   0.000  1.00  0.00     0.089 A 
HETATM    2  C   UNL     1       7.812   1.037   0.000  1.00  0.00     0.092 A 
HETATM    3  C   UNL     1       8.316  -1.337   0.000  1.00  0.00     0.072 A 
HETATM    4  C   UNL     1       6.513   0.287   0.000  1.00  0.00     0.120 A 
HETATM    5  S   UNL     1       6.825  -1.181   0.000  1.00  0.00    -0.064 SA
HETATM    6  C   UNL     1       7.969   2.528   0.000  1.00  0.00     0.025 C 
HETATM    7  N   UNL     1       8.125   4.020   0.000  1.00  0.00    -0.096 N 
HETATM    8  N   UNL     1      10.394   0.345   0.000  1.00  0.00    -0.099 NA
ENDROOT
BRANCH   4   9
HETATM    9  N   UNL     1       5.143   0.897   0.000  1.00  0.00    -0.247 NA
BRANCH   9  10
HETATM   10  C   UNL     1       4.986   2.389   0.000  1.00  0.00     0.037 A 
HETATM   11  C   UNL     1       6.199   3.270   0.000  1.00  0.00     0.041 A 
HETATM   12  C   UNL     1       6.042   4.762   0.000  1.00  0.00     0.006 A 
HETATM   13  C   UNL     1       4.672   5.372   0.000  1.00  0.00     0.001 A 
HETATM   14  C   UNL     1       7.256   5.644   0.000  1.00  0.00     0.000 C 
HETATM   15  C   UNL     1       3.459   4.490   0.000  1.00  0.00     0.006 A 
HETATM   16  C   UNL     1       3.615   2.999   0.000  1.00  0.00     0.041 A 
ENDBRANCH   9  10
ENDBRANCH   4   9
BRANCH   3  17
HETATM   17  C   UNL     1       9.066  -2.636   0.000  1.00  0.00     0.157 C 
HETATM   18  O   UNL     1       8.316  -3.936   0.000  1.00  0.00    -0.188 OA
BRANCH  17  19
HETATM   19  C   UNL     1      10.566  -2.636   0.000  1.00  0.00     0.107 A 
HETATM   20  C   UNL     1      11.448  -1.423   0.000  1.00  0.00     0.078 A 
HETATM   21  C   UNL     1      12.875  -1.886   0.000  1.00  0.00    -0.014 A 
HETATM   22  C   UNL     1      14.174  -1.136   0.000  1.00  0.00     0.058 A 
HETATM   23  C   UNL     1      12.875  -3.386   0.000  1.00  0.00     0.070 A 
HETATM   24  C   UNL     1      15.473  -1.886   0.000  1.00  0.00     0.018 A 
HETATM   25 CL   UNL     1      16.772  -1.136   0.000  1.00  0.00    -0.091 Cl
HETATM   26  C   UNL     1      15.473  -3.386   0.000  1.00  0.00     0.041 A 
HETATM   27  C   UNL     1      14.174  -4.136   0.000  1.00  0.00     0.056 A 
HETATM   28  O   UNL     1      11.448  -3.850   0.000  1.00  0.00    -0.314 OA
ENDBRANCH  17  19
ENDBRANCH   3  17
TORSDOF 4
