REMARK  0 active torsions:
REMARK  status: ('A' for Active; 'I' for Inactive)
ROOT
HETATM    1  C   UNL     1      -5.250  -2.049   0.000  1.00  0.00     0.065 A 
HETATM    2  C   UNL     1      -6.750  -2.049   0.000  1.00  0.00     0.046 A 
HETATM    3  C   UNL     1      -4.500  -3.348   0.000  1.00  0.00     0.067 A 
HETATM    4  C   UNL     1      -7.500  -3.348   0.000  1.00  0.00     0.007 A 
HETATM    5  C   UNL     1      -5.250  -4.647   0.000  1.00  0.00     0.038 A 
HETATM    6  C   UNL     1      -6.750  -4.647   0.000  1.00  0.00     0.006 A 
HETATM    7  S   UNL     1      -3.000  -3.348   0.000  1.00  0.00     0.150 S 
HETATM    8  O   UNL     1      -3.000  -4.848   0.000  1.00  0.00    -0.230 OA
HETATM    9  O   UNL     1      -3.000  -1.848   0.000  1.00  0.00     0.000 OA
HETATM   10  N   UNL     1      -1.500  -3.348   0.000  1.00  0.00    -0.283 N 
HETATM   11  N   UNL     1      -4.500  -0.750   0.000  1.00  0.00    -0.241 NA
HETATM   12  C   UNL     1      -3.000  -0.750   0.000  1.00  0.00     0.132 A 
HETATM   13  S   UNL     1      -1.500  -0.750   0.000  1.00  0.00    -0.068 SA
HETATM   14  C   UNL     1      -0.750  -4.647   0.000  1.00  0.00     0.137 C 
HETATM   15  C   UNL     1      -0.750  -2.049   0.000  1.00  0.00     0.175 A 
ENDROOT
TORSDOF 0
