REMARK  3 active torsions:
REMARK  status: ('A' for Active; 'I' for Inactive)
REMARK    1  A    between atoms: C_14  and  C_15 
REMARK    2  A    between atoms: C_15  and  O_18 
REMARK    3  A    between atoms: O_18  and  C_19 
ROOT
HETATM    1  C   UNL     1       1.652   4.165   0.000  1.00  0.00     0.005 A 
HETATM    2  C   UNL     1       1.652   2.665   0.000  1.00  0.00     0.005 A 
HETATM    3  C   UNL     1       2.951   4.915   0.000  1.00  0.00     0.033 A 
HETATM    4  C   UNL     1       2.951   1.915   0.000  1.00  0.00     0.027 A 
HETATM    5  C   UNL     1       4.250   4.165   0.000  1.00  0.00     0.005 A 
HETATM    6  C   UNL     1       4.250   2.665   0.000  1.00  0.00    -0.015 A 
HETATM    7  S   UNL     1       5.677   4.629   0.000  1.00  0.00    -0.072 SA
HETATM    8  C   UNL     1       6.558   3.415   0.000  1.00  0.00     0.115 A 
HETATM    9  C   UNL     1       5.677   2.202   0.000  1.00  0.00     0.062 A 
HETATM   10  N   UNL     1       8.050   3.259   0.000  1.00  0.00    -0.218 NA
HETATM   11  C   UNL     1       6.287   0.831   0.000  1.00  0.00     0.194 A 
HETATM   12  O   UNL     1       5.405  -0.382   0.000  1.00  0.00    -0.171 OA
HETATM   13  N   UNL     1       7.779   0.675   0.000  1.00  0.00    -0.314 N 
HETATM   14  C   UNL     1       8.660   1.888   0.000  1.00  0.00     0.192 A 
HETATM   15  H   UNL     1       8.389  -0.696   0.000  1.00  0.00     0.169 HD
ENDROOT
BRANCH  14  16
HETATM   16  C   UNL     1      10.152   1.731   0.000  1.00  0.00     0.263 C 
HETATM   17  O   UNL     1      11.034   2.945   0.000  1.00  0.00    -0.160 OA
BRANCH  16  18
HETATM   18  O   UNL     1      10.762   0.361   0.000  1.00  0.00    -0.307 OA
BRANCH  18  19
HETATM   19  C   UNL     1      12.254   0.204   0.000  1.00  0.00     0.151 C 
HETATM   20  C   UNL     1      13.136   1.418   0.000  1.00  0.00     0.035 C 
ENDBRANCH  18  19
ENDBRANCH  16  18
ENDBRANCH  14  16
TORSDOF 3
