REMARK  1 active torsions:
REMARK  status: ('A' for Active; 'I' for Inactive)
REMARK    1  A    between atoms: C_16  and  C_27 
ROOT
HETATM    1  C   UNL     1      -7.930   0.600   0.000  1.00  0.00     0.040 A 
HETATM    2  C   UNL     1      -7.773  -0.892   0.000  1.00  0.00     0.048 A 
HETATM    3  C   UNL     1      -9.300   1.210   0.000  1.00  0.00     0.010 A 
HETATM    4  C   UNL     1      -5.046  -4.129   0.000  1.00  0.00     0.080 A 
HETATM    5  C   UNL     1      -7.460  -3.875   0.000  1.00  0.00     0.279 A 
HETATM    6  C   UNL     1      -8.987  -1.774   0.000  1.00  0.00     0.082 A 
HETATM    7  C   UNL     1     -10.514   0.328   0.000  1.00  0.00     0.024 A 
HETATM    8  C   UNL     1      -4.156  -5.499   0.000  1.00  0.00     0.041 A 
HETATM    9  C   UNL     1      -5.656  -5.499   0.000  1.00  0.00     0.213 A 
HETATM   10  C   UNL     1     -10.357  -1.163   0.000  1.00  0.00    -0.026 A 
HETATM   11  C   UNL     1      -3.406  -6.798   0.000  1.00  0.00     0.003 A 
HETATM   12  C   UNL     1      -6.406  -6.798   0.000  1.00  0.00     0.255 A 
HETATM   13  C   UNL     1      -4.156  -8.098   0.000  1.00  0.00     0.002 A 
HETATM   14  C   UNL     1      -5.656  -8.098   0.000  1.00  0.00     0.036 A 
HETATM   15 CL   UNL     1      -6.403  -1.502   0.000  1.00  0.00    -0.114 Cl
HETATM   16  N   UNL     1      -8.830  -3.265   0.000  1.00  0.00    -0.216 NA
HETATM   17  C   UNL     1      -8.151  -6.457   0.000  1.00  0.00     0.344 A 
HETATM   18  N   UNL     1      -7.148  -5.343   0.000  1.00  0.00     0.061 N 
HETATM   19  S   UNL     1      -6.160  -3.125   0.000  1.00  0.00    -0.045 SA
HETATM   20  O   UNL     1      -7.688  -7.884   0.000  1.00  0.00    -0.187 OA
HETATM   21  C   UNL     1     -11.570  -2.045   0.000  1.00  0.00     0.028 C 
HETATM   22  C   UNL     1      -3.579  -3.817   0.000  1.00  0.00     0.015 A 
ENDROOT
BRANCH  17  23
HETATM   23  C   UNL     1      -9.619  -6.146   0.000  1.00  0.00     0.075 A 
HETATM   24  C   UNL     1     -10.733  -7.149   0.000  1.00  0.00     0.060 A 
HETATM   25 CL   UNL     1     -10.576  -8.641   0.000  1.00  0.00    -0.082 Cl
HETATM   26  C   UNL     1     -12.032  -6.399   0.000  1.00  0.00    -0.009 A 
HETATM   27  C   UNL     1     -11.720  -4.932   0.000  1.00  0.00     0.004 A 
HETATM   28  C   UNL     1     -13.459  -6.863   0.000  1.00  0.00     0.027 A 
HETATM   29  C   UNL     1     -12.835  -3.928   0.000  1.00  0.00     0.033 A 
HETATM   30  S   UNL     1     -10.229  -4.775   0.000  1.00  0.00    -0.091 SA
HETATM   31  C   UNL     1     -14.262  -4.392   0.000  1.00  0.00     0.005 A 
HETATM   32  C   UNL     1     -14.574  -5.859   0.000  1.00  0.00     0.005 A 
ENDBRANCH  17  23
TORSDOF 1
