REMARK  5 active torsions:
REMARK  status: ('A' for Active; 'I' for Inactive)
REMARK    1  A    between atoms: C_9  and  C_11 
REMARK    2  A    between atoms: C_10  and  C_22 
REMARK    3  A    between atoms: C_15  and  C_24 
REMARK    4  A    between atoms: C_16  and  N_17 
REMARK    5  A    between atoms: C_16  and  C_24 
ROOT
HETATM    1  C   UNL     1      -1.752   7.354   0.000  1.00  0.00     0.004 A 
HETATM    2  C   UNL     1      -1.752   5.854   0.000  1.00  0.00     0.004 A 
HETATM    3  C   UNL     1      -0.453   8.104   0.000  1.00  0.00     0.015 A 
HETATM    4  C   UNL     1      -0.453   5.104   0.000  1.00  0.00     0.015 A 
HETATM    5  C   UNL     1       0.846   7.354   0.000  1.00  0.00    -0.048 A 
HETATM    6  C   UNL     1       0.846   5.854   0.000  1.00  0.00    -0.048 A 
HETATM    7  C   UNL     1       2.145   8.104   0.000  1.00  0.00     0.048 A 
HETATM    8  C   UNL     1       2.145   5.104   0.000  1.00  0.00     0.043 A 
HETATM    9  C   UNL     1       3.444   7.354   0.000  1.00  0.00    -0.012 A 
HETATM   10  C   UNL     1       3.444   5.854   0.000  1.00  0.00    -0.043 A 
HETATM   11  C   UNL     1      -1.417   9.253   0.000  1.00  0.00     0.004 C 
HETATM   12  C   UNL     1      -1.417   3.955   0.000  1.00  0.00     0.004 C 
HETATM   13  C   UNL     1       0.511   9.253   0.000  1.00  0.00     0.004 C 
HETATM   14  C   UNL     1       0.511   3.955   0.000  1.00  0.00     0.004 C 
ENDROOT
BRANCH   9  15
HETATM   15  C   UNL     1       4.743   8.104   0.000  1.00  0.00     0.061 A 
HETATM   16  C   UNL     1       4.900   9.596   0.000  1.00  0.00     0.104 A 
HETATM   17  S   UNL     1       6.367   9.908   0.000  1.00  0.00    -0.110 SA
HETATM   18  C   UNL     1       7.117   8.609   0.000  1.00  0.00     0.158 A 
HETATM   19  N   UNL     1       6.113   7.494   0.000  1.00  0.00    -0.265 NA
BRANCH  18  20
HETATM   20  C   UNL     1       8.609   8.452   0.000  1.00  0.00     0.098 C 
BRANCH  20  21
HETATM   21  C   UNL     1       9.490   9.666   0.000  1.00  0.00     0.160 C 
HETATM   22  N   UNL     1      10.982   9.509   0.000  1.00  0.00    -0.082 NA
BRANCH  21  23
HETATM   23  N   UNL     1       8.880  11.036   0.000  1.00  0.00    -0.086 NA
HETATM   24  O   UNL     1       9.762  12.249   0.000  1.00  0.00    -0.060 OA
ENDBRANCH  21  23
ENDBRANCH  20  21
ENDBRANCH  18  20
ENDBRANCH   9  15
BRANCH  10  25
HETATM   25  C   UNL     1       4.743   5.104   0.000  1.00  0.00     0.022 C 
HETATM   26  C   UNL     1       4.743   3.604   0.000  1.00  0.00     0.005 C 
ENDBRANCH  10  25
TORSDOF 5
