REMARK  0 active torsions:
REMARK  status: ('A' for Active; 'I' for Inactive)
ROOT
HETATM    1  O   UNL     1       8.819  -2.725   0.000  1.00  0.00    -0.316 OA
HETATM    2  C   UNL     1       8.819   0.275   0.000  1.00  0.00     0.082 A 
HETATM    3  C   UNL     1       7.520  -0.475   0.000  1.00  0.00     0.032 A 
HETATM    4  C   UNL     1      10.118  -0.475   0.000  1.00  0.00     0.014 A 
HETATM    5  C   UNL     1      11.417   0.275   0.000  1.00  0.00     0.030 A 
HETATM    6  C   UNL     1      12.716  -0.475   0.000  1.00  0.00     0.005 A 
HETATM    7  C   UNL     1       6.221   0.275   0.000  1.00  0.00    -0.023 A 
HETATM    8  C   UNL     1       4.922  -0.475   0.000  1.00  0.00     0.026 A 
HETATM    9  C   UNL     1      12.716  -1.975   0.000  1.00  0.00     0.007 A 
HETATM   10  C   UNL     1      10.118  -1.975   0.000  1.00  0.00     0.075 A 
HETATM   11  C   UNL     1       7.520  -1.976   0.000  1.00  0.00     0.078 A 
HETATM   12  C   UNL     1       4.922  -1.976   0.000  1.00  0.00     0.011 A 
HETATM   13  C   UNL     1      11.417  -2.725   0.000  1.00  0.00     0.051 A 
HETATM   14  C   UNL     1       6.221  -2.725   0.000  1.00  0.00     0.052 A 
HETATM   15  N   UNL     1       8.819   1.774   0.000  1.00  0.00    -0.220 NA
HETATM   16  C   UNL     1       7.520   2.525   0.000  1.00  0.00     0.220 A 
HETATM   17  O   UNL     1       6.221   1.774   0.000  1.00  0.00     0.000 OA
HETATM   18  O   UNL     1       7.520   4.024   0.000  1.00  0.00    -0.312 OA
HETATM   19  C   UNL     1       6.221   4.774   0.000  1.00  0.00     0.151 A 
HETATM   20  C   UNL     1       4.922   4.024   0.000  1.00  0.00     0.030 A 
HETATM   21  C   UNL     1       3.623   4.774   0.000  1.00  0.00     0.003 C 
HETATM   22  C   UNL     1       4.922   2.525   0.000  1.00  0.00     0.003 A 
ENDROOT
TORSDOF 0
