REMARK  3 active torsions:
REMARK  status: ('A' for Active; 'I' for Inactive)
REMARK    1  A    between atoms: C_4  and  S_6 
REMARK    2  A    between atoms: C_5  and  N_14 
REMARK    3  A    between atoms: S_6  and  C_7 
ROOT
HETATM    1  N   UNL     1      -3.152   1.028   0.000  1.00  0.00    -0.223 NA
HETATM    2  C   UNL     1      -3.116  -0.472   0.000  1.00  0.00     0.233 A 
HETATM    3  N   UNL     1      -1.679  -0.901   0.000  1.00  0.00    -0.318 N 
HETATM    4  C   UNL     1      -0.827   0.334   0.000  1.00  0.00     0.131 A 
HETATM    5  C   UNL     1      -1.737   1.526   0.000  1.00  0.00     0.227 A 
HETATM    6  C   UNL     1      -1.181  -2.316   0.000  1.00  0.00     0.128 C 
ENDROOT
BRANCH   4   7
HETATM    7  S   UNL     1       0.673   0.370   0.000  1.00  0.00    -0.029 SA
BRANCH   7   8
HETATM    8  C   UNL     1       1.454  -0.911   0.000  1.00  0.00     0.185 A 
HETATM    9  N   UNL     1       0.877  -2.296   0.000  1.00  0.00    -0.153 NA
HETATM   10  N   UNL     1       2.015  -3.272   0.000  1.00  0.00    -0.073 NA
HETATM   11  C   UNL     1       3.296  -2.491   0.000  1.00  0.00     0.219 A 
HETATM   12  N   UNL     1       2.949  -1.032   0.000  1.00  0.00    -0.336 N 
HETATM   13  H   UNL     1       3.925   0.107   0.000  1.00  0.00     0.164 HD
ENDBRANCH   7   8
ENDBRANCH   4   7
BRANCH   5  14
HETATM   14  N   UNL     1      -1.308   2.963   0.000  1.00  0.00    -0.093 N 
HETATM   15  O   UNL     1       0.151   3.310   0.000  1.00  0.00    -0.530 OA
HETATM   16  O   UNL     1      -2.338   4.053   0.000  1.00  0.00    -0.530 OA
ENDBRANCH   5  14
TORSDOF 3
