REMARK  2 active torsions:
REMARK  status: ('A' for Active; 'I' for Inactive)
REMARK    1  A    between atoms: C_6  and  S_7 
REMARK    2  A    between atoms: S_7  and  C_8 
ROOT
HETATM    1  S   UNL     1       4.647   0.750   0.000  1.00  0.00    -0.035 SA
ENDROOT
BRANCH   1   2
HETATM    2  C   UNL     1       3.348   1.500   0.000  1.00  0.00     0.086 A 
HETATM    3  N   UNL     1       2.049   0.750   0.000  1.00  0.00    -0.269 NA
HETATM    4  C   UNL     1       0.750   1.500   0.000  1.00  0.00     0.126 A 
HETATM    5  C   UNL     1       0.750   3.000   0.000  1.00  0.00     0.027 A 
HETATM    6  C   UNL     1       2.049   3.750   0.000  1.00  0.00     0.009 A 
HETATM    7  C   UNL     1       3.348   3.000   0.000  1.00  0.00     0.052 A 
ENDBRANCH   1   2
BRANCH   1   8
HETATM    8  C   UNL     1       5.946   1.500   0.000  1.00  0.00     0.186 A 
HETATM    9  N   UNL     1       5.946   3.000   0.000  1.00  0.00    -0.248 NA
HETATM   10  C   UNL     1       7.245   3.750   0.000  1.00  0.00     0.130 A 
HETATM   11  C   UNL     1       8.544   3.000   0.000  1.00  0.00     0.053 A 
HETATM   12  C   UNL     1       8.544   1.500   0.000  1.00  0.00     0.130 A 
HETATM   13  N   UNL     1       7.245   0.750   0.000  1.00  0.00    -0.248 NA
ENDBRANCH   1   8
TORSDOF 2
