REMARK  3 active torsions:
REMARK  status: ('A' for Active; 'I' for Inactive)
REMARK    1  A    between atoms: C_2  and  N_13 
REMARK    2  A    between atoms: C_5  and  S_6 
REMARK    3  A    between atoms: S_6  and  C_8 
ROOT
HETATM    1  C   UNL     1       3.873   3.576   0.000  1.00  0.00     0.349 A 
HETATM    2  C   UNL     1       3.123   2.277   0.000  1.00  0.00     0.168 A 
HETATM    3  N   UNL     1       5.341   3.264   0.000  1.00  0.00     0.367 N 
HETATM    4  S   UNL     1       4.127   1.162   0.000  1.00  0.00    -0.047 SA
HETATM    5  C   UNL     1       5.497   1.772   0.000  1.00  0.00     0.363 A 
ENDROOT
BRANCH   5   6
HETATM    6  S   UNL     1       6.796   1.022   0.000  1.00  0.00    -0.053 SA
BRANCH   6   7
HETATM    7  C   UNL     1       8.096   1.772   0.000  1.00  0.00     0.086 A 
HETATM    8  C   UNL     1       8.095   3.272   0.000  1.00  0.00     0.078 A 
HETATM    9  C   UNL     1       9.395   4.022   0.000  1.00  0.00     0.129 A 
HETATM   10  N   UNL     1      10.694   3.272   0.000  1.00  0.00    -0.270 NA
HETATM   11  C   UNL     1      10.694   1.772   0.000  1.00  0.00     0.246 A 
HETATM   12  N   UNL     1       9.395   1.022   0.000  1.00  0.00    -0.243 NA
ENDBRANCH   6   7
ENDBRANCH   5   6
BRANCH   2  13
HETATM   13  N   UNL     1       1.632   2.120   0.000  1.00  0.00    -0.110 N 
HETATM   14  O   UNL     1       0.750   3.334   0.000  1.00  0.00    -0.531 OA
HETATM   15  O   UNL     1       1.022   0.750   0.000  1.00  0.00    -0.531 OA
ENDBRANCH   2  13
TORSDOF 3
