REMARK  4 active torsions:
REMARK  status: ('A' for Active; 'I' for Inactive)
REMARK    1  A    between atoms: C_8  and  C_16 
REMARK    2  A    between atoms: C_10  and  C_16 
REMARK    3  A    between atoms: C_12  and  O_17 
REMARK    4  A    between atoms: O_17  and  C_18 
ROOT
HETATM    1  C   UNL     1      -8.544  -2.077   0.000  1.00  0.00     0.047 C 
ENDROOT
BRANCH   1   2
HETATM    2  C   UNL     1      -9.843  -2.827   0.000  1.00  0.00     0.078 A 
HETATM    3  N   UNL     1     -10.000  -4.319   0.000  1.00  0.00    -0.332 N 
HETATM    4  C   UNL     1     -11.467  -4.631   0.000  1.00  0.00     0.178 A 
HETATM    5  H   UNL     1      -8.885  -5.323   0.000  1.00  0.00     0.168 HD
HETATM    6  S   UNL     1     -12.077  -6.001   0.000  1.00  0.00    -0.040 SA
HETATM    7  N   UNL     1     -12.217  -3.332   0.000  1.00  0.00    -0.310 N 
HETATM    8  H   UNL     1     -13.709  -3.175   0.000  1.00  0.00     0.170 HD
HETATM    9  C   UNL     1     -11.214  -2.217   0.000  1.00  0.00     0.204 A 
HETATM   10  O   UNL     1     -11.525  -0.750   0.000  1.00  0.00    -0.170 OA
ENDBRANCH   1   2
BRANCH   1  11
HETATM   11  C   UNL     1      -7.245  -2.827   0.000  1.00  0.00     0.006 A 
HETATM   12  C   UNL     1      -5.946  -2.077   0.000  1.00  0.00     0.003 A 
HETATM   13  C   UNL     1      -4.647  -2.827   0.000  1.00  0.00     0.030 A 
HETATM   14  C   UNL     1      -4.647  -4.327   0.000  1.00  0.00     0.115 A 
HETATM   15  C   UNL     1      -5.946  -5.077   0.000  1.00  0.00     0.030 A 
HETATM   16  C   UNL     1      -7.245  -4.327   0.000  1.00  0.00     0.003 A 
BRANCH  14  17
HETATM   17  O   UNL     1      -3.348  -5.077   0.000  1.00  0.00    -0.357 OA
BRANCH  17  18
HETATM   18  C   UNL     1      -2.049  -4.327   0.000  1.00  0.00     0.142 C 
HETATM   19  C   UNL     1      -0.750  -5.077   0.000  1.00  0.00     0.035 C 
ENDBRANCH  17  18
ENDBRANCH  14  17
ENDBRANCH   1  11
TORSDOF 4
