REMARK  2 active torsions:
REMARK  status: ('A' for Active; 'I' for Inactive)
REMARK    1  A    between atoms: C_5  and  C_16 
REMARK    2  A    between atoms: N_11  and  C_12 
ROOT
HETATM    1  N   UNL     1       2.324  -1.024   0.000  1.00  0.00    -0.229 NA
HETATM    2  C   UNL     1       2.324  -2.525   0.000  1.00  0.00     0.253 A 
HETATM    3  C   UNL     1       3.623  -0.275   0.000  1.00  0.00     0.168 A 
HETATM    4  N   UNL     1       3.623  -3.275   0.000  1.00  0.00    -0.226 NA
HETATM    5  C   UNL     1       4.922  -2.525   0.000  1.00  0.00     0.163 A 
HETATM    6  C   UNL     1       4.922  -1.024   0.000  1.00  0.00     0.143 A 
HETATM    7  N   UNL     1       6.348  -2.988   0.000  1.00  0.00    -0.292 N 
HETATM    8  C   UNL     1       7.230  -1.774   0.000  1.00  0.00     0.236 A 
HETATM    9  N   UNL     1       6.348  -0.561   0.000  1.00  0.00    -0.240 NA
HETATM   10  N   UNL     1       3.623   1.226   0.000  1.00  0.00    -0.078 NA
ENDROOT
BRANCH   7  11
HETATM   11  C   UNL     1       6.812  -4.415   0.000  1.00  0.00     0.072 A 
HETATM   12  C   UNL     1       5.930  -5.628   0.000  1.00  0.00     0.073 A 
HETATM   13  C   UNL     1       6.812  -6.842   0.000  1.00  0.00     0.022 A 
HETATM   14  C   UNL     1       8.238  -6.378   0.000  1.00  0.00     0.152 A 
HETATM   15  C   UNL     1       8.238  -4.878   0.000  1.00  0.00     0.168 A 
HETATM   16  O   UNL     1       9.452  -7.260   0.000  1.00  0.00    -0.189 OA
HETATM   17  O   UNL     1       9.452  -3.997   0.000  1.00  0.00    -0.187 OA
BRANCH  13  18
HETATM   18  C   UNL     1       6.348  -8.268   0.000  1.00  0.00     0.207 C 
HETATM   19  O   UNL     1       7.352  -9.383   0.000  1.00  0.00    -0.216 OA
ENDBRANCH  13  18
ENDBRANCH   7  11
TORSDOF 2
