REMARK  0 active torsions:
REMARK  status: ('A' for Active; 'I' for Inactive)
ROOT
HETATM    1  O   UNL     1       1.447  -3.216   0.000  1.00  0.00     0.000 OA
HETATM    2  C   UNL     1      -3.070  -2.762   0.000  1.00  0.00     0.038 A 
HETATM    3  C   UNL     1      -4.349  -3.546   0.000  1.00  0.00     0.042 A 
HETATM    4  C   UNL     1      -1.752  -3.477   0.000  1.00  0.00     0.182 A 
HETATM    5  C   UNL     1      -1.712  -4.977   0.000  1.00  0.00     0.184 A 
HETATM    6  C   UNL     1      -4.309  -5.045   0.000  1.00  0.00     0.305 A 
HETATM    7  C   UNL     1      -2.991  -5.761   0.000  1.00  0.00     0.074 A 
HETATM    8  N   UNL     1      -5.588  -5.829   0.000  1.00  0.00     0.616 N 
HETATM    9 AS   UNL     1       0.358  -2.184   0.000  1.00  0.00     0.000 As
HETATM   10  O   UNL     1       0.708  -0.725   0.000  1.00  0.00     0.000 OA
HETATM   11  O   UNL     1      -1.141  -2.223   0.000  1.00  0.00    -0.221 OA
HETATM   12  O   UNL     1      -0.394  -5.692   0.000  1.00  0.00    -0.221 OA
ENDROOT
TORSDOF 0
