REMARK  1 active torsions:
REMARK  status: ('A' for Active; 'I' for Inactive)
REMARK    1  A    between atoms: C_10  and  O_19 
ROOT
HETATM    1  C   UNL     1       2.728  -2.776   0.000  1.00  0.00     0.005 A 
HETATM    2  C   UNL     1       1.429  -3.526   0.000  1.00  0.00     0.026 A 
HETATM    3  C   UNL     1       4.027  -3.526   0.000  1.00  0.00     0.005 A 
HETATM    4  C   UNL     1       4.027  -5.026   0.000  1.00  0.00     0.028 A 
HETATM    5  C   UNL     1       1.429  -5.026   0.000  1.00  0.00    -0.028 A 
HETATM    6  C   UNL     1       2.728  -5.776   0.000  1.00  0.00    -0.003 A 
HETATM    7  C   UNL     1       0.129  -5.776   0.000  1.00  0.00    -0.023 A 
HETATM    8  C   UNL     1      -1.170  -5.026   0.000  1.00  0.00     0.026 A 
HETATM    9  C   UNL     1      -2.469  -5.776   0.000  1.00  0.00     0.011 A 
HETATM   10  C   UNL     1       2.728  -7.276   0.000  1.00  0.00     0.107 A 
HETATM   11  C   UNL     1       0.129  -7.276   0.000  1.00  0.00     0.034 A 
HETATM   12  C   UNL     1      -2.469  -7.276   0.000  1.00  0.00     0.052 A 
HETATM   13  C   UNL     1       1.429  -8.026   0.000  1.00  0.00     0.106 A 
HETATM   14  C   UNL     1      -1.170  -8.026   0.000  1.00  0.00     0.080 A 
HETATM   15  N   UNL     1       1.429  -9.526   0.000  1.00  0.00    -0.224 NA
HETATM   16  C   UNL     1       0.129 -10.276   0.000  1.00  0.00     0.159 A 
HETATM   17  O   UNL     1      -1.170  -9.526   0.000  1.00  0.00    -0.297 OA
HETATM   18  C   UNL     1       0.130 -11.776   0.000  1.00  0.00     0.080 C 
ENDROOT
BRANCH  10  19
HETATM   19  O   UNL     1       4.027  -8.026   0.000  1.00  0.00    -0.327 OA
HETATM   20  C   UNL     1       5.326  -7.276   0.000  1.00  0.00     0.181 C 
ENDBRANCH  10  19
TORSDOF 1
