REMARK  5 active torsions:
REMARK  status: ('A' for Active; 'I' for Inactive)
REMARK    1  A    between atoms: C_12  and  N_18 
REMARK    2  A    between atoms: C_13  and  C_19 
REMARK    3  A    between atoms: N_16  and  C_21 
REMARK    4  A    between atoms: N_18  and  C_20 
REMARK    5  A    between atoms: C_20  and  C_21 
ROOT
HETATM    1  C   UNL     1      -9.368  -7.775   0.000  1.00  0.00     0.157 A 
HETATM    2  C   UNL     1      -9.368  -9.275   0.000  1.00  0.00     0.038 A 
HETATM    3  C   UNL     1      -8.069  -7.024   0.000  1.00  0.00     0.061 A 
HETATM    4  C   UNL     1      -8.069 -10.025   0.000  1.00  0.00     0.035 A 
HETATM    5  C   UNL     1      -6.770  -7.774   0.000  1.00  0.00     0.008 A 
HETATM    6  C   UNL     1      -6.770  -9.274   0.000  1.00  0.00     0.005 A 
HETATM    7  O   UNL     1      -5.471  -5.524   0.000  1.00  0.00    -0.190 OA
HETATM    8  C   UNL     1      -5.471  -7.024   0.000  1.00  0.00     0.129 A 
HETATM    9  S   UNL     1      -5.471 -10.024   0.000  1.00  0.00    -0.092 SA
HETATM   10  C   UNL     1      -4.172  -7.774   0.000  1.00  0.00     0.044 A 
HETATM   11  C   UNL     1      -4.172  -9.274   0.000  1.00  0.00     0.025 A 
HETATM   12  C   UNL     1      -2.873  -7.024   0.000  1.00  0.00     0.057 A 
HETATM   13  C   UNL     1      -2.873 -10.024   0.000  1.00  0.00    -0.027 A 
HETATM   14  C   UNL     1      -1.573  -9.274   0.000  1.00  0.00     0.030 A 
HETATM   15  C   UNL     1      -1.573  -7.774   0.000  1.00  0.00     0.050 A 
HETATM   16  O   UNL     1     -10.667  -7.025   0.000  1.00  0.00    -0.223 OA
ENDROOT
BRANCH  12  17
HETATM   17  N   UNL     1      -2.873  -5.524   0.000  1.00  0.00    -0.273 NA
BRANCH  17  18
HETATM   18  C   UNL     1      -1.573  -4.774   0.000  1.00  0.00     0.149 C 
BRANCH  18  19
HETATM   19  C   UNL     1      -1.573  -3.275   0.000  1.00  0.00     0.124 C 
BRANCH  19  20
HETATM   20  N   UNL     1      -0.275  -2.525   0.000  1.00  0.00    -0.364 N 
HETATM   21  C   UNL     1       1.024  -3.275   0.000  1.00  0.00     0.121 C 
HETATM   22  C   UNL     1      -0.275  -1.024   0.000  1.00  0.00     0.121 C 
ENDBRANCH  19  20
ENDBRANCH  18  19
ENDBRANCH  17  18
ENDBRANCH  12  17
BRANCH  13  23
HETATM   23  C   UNL     1      -2.873 -11.524   0.000  1.00  0.00     0.085 C 
HETATM   24  I   UNL     2      -0.824 -12.074   0.000  1.00  0.00    -0.070 I 
ENDBRANCH  13  23
TORSDOF 5
