REMARK  1 active torsions:
REMARK  status: ('A' for Active; 'I' for Inactive)
REMARK    1  A    between atoms: N_21  and  C_24 
ROOT
HETATM    1 CL   UNL     1      -1.024   3.275   0.000  1.00  0.00    -0.091 Cl
HETATM    2  C   UNL     1       0.275   5.524   0.000  1.00  0.00     0.039 A 
HETATM    3  C   UNL     1       0.275   4.024   0.000  1.00  0.00     0.020 A 
HETATM    4  C   UNL     1       1.573   6.274   0.000  1.00  0.00     0.034 A 
HETATM    5  C   UNL     1       1.574   3.275   0.000  1.00  0.00     0.079 A 
HETATM    6  C   UNL     1       2.873   5.524   0.000  1.00  0.00     0.007 A 
HETATM    7  C   UNL     1       2.873   4.024   0.000  1.00  0.00     0.057 A 
HETATM    8  H   UNL     1       3.480   8.857   0.000  1.00  0.00     0.166 HD
HETATM    9  C   UNL     1       4.172   6.274   0.000  1.00  0.00     0.051 A 
HETATM   10  N   UNL     1       4.172   3.275   0.000  1.00  0.00    -0.270 NA
HETATM   11  N   UNL     1       4.484   7.742   0.000  1.00  0.00    -0.357 N 
HETATM   12  C   UNL     1       5.471   5.524   0.000  1.00  0.00     0.015 A 
HETATM   13  C   UNL     1       5.471   4.024   0.000  1.00  0.00     0.153 A 
HETATM   14  C   UNL     1       6.585   6.528   0.000  1.00  0.00    -0.007 A 
HETATM   15  C   UNL     1       5.975   7.899   0.000  1.00  0.00     0.034 A 
HETATM   16  C   UNL     1       6.857   9.112   0.000  1.00  0.00     0.067 A 
HETATM   17  C   UNL     1       8.077   6.372   0.000  1.00  0.00     0.053 A 
HETATM   18  C   UNL     1       8.959   7.585   0.000  1.00  0.00    -0.028 A 
HETATM   19  C   UNL     1       8.349   8.955   0.000  1.00  0.00    -0.020 A 
HETATM   20  O   UNL     1      10.451   7.428   0.000  1.00  0.00     0.000 OA
HETATM   21  N   UNL     1      10.722  10.012   0.000  1.00  0.00    -0.347 N 
HETATM   22  C   UNL     1       9.230  10.169   0.000  1.00  0.00     0.124 A 
HETATM   23  C   UNL     1      11.061   6.058   0.000  1.00  0.00     0.000 C 
HETATM   24  C   UNL     1      11.332   8.642   0.000  1.00  0.00     0.045 A 
HETATM   25  C   UNL     1      12.824   8.485   0.000  1.00  0.00     0.051 C 
ENDROOT
BRANCH  21  26
HETATM   26  C   UNL     1      11.604  11.226   0.000  1.00  0.00     0.102 C 
HETATM   27  C   UNL     1      10.994  12.596   0.000  1.00  0.00     0.026 C 
ENDBRANCH  21  26
TORSDOF 1
