REMARK  3 active torsions:
REMARK  status: ('A' for Active; 'I' for Inactive)
REMARK    1  A    between atoms: C_2  and  C_17 
REMARK    2  A    between atoms: C_2  and  C_21 
REMARK    3  A    between atoms: C_9  and  C_21 
ROOT
HETATM    1  N   UNL     1      -8.701  -2.361   0.000  1.00  0.00    -0.327 N 
HETATM    2  C   UNL     1     -10.918  -0.750   0.000  1.00  0.00     0.043 A 
HETATM    3  C   UNL     1     -12.418  -0.750   0.000  1.00  0.00     0.006 A 
HETATM    4  C   UNL     1     -10.168  -2.049   0.000  1.00  0.00     0.030 A 
HETATM    5  C   UNL     1     -10.918  -3.348   0.000  1.00  0.00    -0.027 A 
HETATM    6  C   UNL     1     -13.168  -2.049   0.000  1.00  0.00     0.005 A 
HETATM    7  C   UNL     1      -9.915  -4.463   0.000  1.00  0.00     0.056 A 
HETATM    8  C   UNL     1      -8.544  -3.853   0.000  1.00  0.00     0.070 A 
HETATM    9  C   UNL     1     -12.418  -3.348   0.000  1.00  0.00     0.024 A 
HETATM   10  C   UNL     1      -7.586  -1.357   0.000  1.00  0.00     0.131 C 
HETATM   11  C   UNL     1     -11.128  -5.345   0.000  1.00  0.00     0.011 C 
HETATM   12  C   UNL     1      -9.165  -5.762   0.000  1.00  0.00     0.011 C 
ENDROOT
BRANCH   8  13
HETATM   13  C   UNL     1      -7.245  -4.603   0.000  1.00  0.00    -0.115 C 
BRANCH  13  14
HETATM   14  C   UNL     1      -5.946  -5.353   0.000  1.00  0.00     0.070 C 
BRANCH  14  15
HETATM   15  C   UNL     1      -4.647  -4.603   0.000  1.00  0.00     0.022 A 
HETATM   16  C   UNL     1      -4.647  -3.103   0.000  1.00  0.00     0.036 A 
HETATM   17  C   UNL     1      -3.348  -2.353   0.000  1.00  0.00     0.034 A 
HETATM   18  I   UNL     1      -3.348  -0.853   0.000  1.00  0.00    -0.045 I 
HETATM   19  C   UNL     1      -2.049  -3.103   0.000  1.00  0.00     0.134 A 
HETATM   20  C   UNL     1      -2.049  -4.603   0.000  1.00  0.00     0.034 A 
HETATM   21  O   UNL     1      -0.750  -2.353   0.000  1.00  0.00    -0.190 OA
HETATM   22  I   UNL     1      -0.750  -5.353   0.000  1.00  0.00    -0.045 I 
HETATM   23  C   UNL     1      -3.348  -5.353   0.000  1.00  0.00     0.036 A 
ENDBRANCH  14  15
ENDBRANCH  13  14
ENDBRANCH   8  13
TORSDOF 3
