REMARK  2 active torsions:
REMARK  status: ('A' for Active; 'I' for Inactive)
REMARK    1  A    between atoms: C_2  and  C_14 
REMARK    2  A    between atoms: C_9  and  N_11 
ROOT
HETATM    1  C   UNL     1      -1.801  -2.016   0.000  1.00  0.00     0.170 A 
HETATM    2  C   UNL     1      -0.510  -2.779   0.000  1.00  0.00     0.189 A 
HETATM    3  O   UNL     1      -1.474  -0.552   0.000  1.00  0.00    -0.318 OA
HETATM    4  C   UNL     1       0.615  -1.787   0.000  1.00  0.00     0.105 A 
HETATM    5  C   UNL     1       0.019  -0.410   0.000  1.00  0.00     0.140 A 
HETATM    6  O   UNL     1      -0.369  -4.272   0.000  1.00  0.00    -0.220 OA
HETATM    7  O   UNL     1      -0.849  -1.460   0.000  1.00  0.00     0.000 OA
ENDROOT
BRANCH   5   8
HETATM    8  N   UNL     1       0.783   0.881   0.000  1.00  0.00    -0.276 N 
HETATM    9  C   UNL     1       0.046   2.188   0.000  1.00  0.00     0.284 A 
HETATM   10  O   UNL     1      -1.454   2.203   0.000  1.00  0.00    -0.149 OA
HETATM   11  N   UNL     1       0.810   3.479   0.000  1.00  0.00    -0.195 NA
HETATM   12  C   UNL     1       2.310   3.463   0.000  1.00  0.00     0.134 A 
HETATM   13  C   UNL     1       3.046   2.156   0.000  1.00  0.00     0.085 A 
HETATM   14  N   UNL     1       3.073   4.754   0.000  1.00  0.00    -0.084 NA
HETATM   15  C   UNL     1       2.283   0.865   0.000  1.00  0.00     0.119 A 
ENDBRANCH   5   8
BRANCH   1  16
HETATM   16  C   UNL     1      -3.178  -2.611   0.000  1.00  0.00     0.128 C 
HETATM   17 CL   UNL     1      -3.350  -4.101   0.000  1.00  0.00    -0.111 Cl
ENDBRANCH   1  16
TORSDOF 2
