REMARK  7 active torsions:
REMARK  status: ('A' for Active; 'I' for Inactive)
REMARK    1  A    between atoms: O_5  and  C_7 
REMARK    2  A    between atoms: C_11  and  N_17 
REMARK    3  A    between atoms: N_17  and  C_18 
REMARK    4  A    between atoms: C_18  and  C_19 
REMARK    5  A    between atoms: C_19  and  C_20 
REMARK    6  A    between atoms: C_20  and  C_21 
REMARK    7  A    between atoms: C_21  and  C_22 
ROOT
HETATM    1  O   UNL     1       2.973   2.150   0.000  1.00  0.00    -0.324 OA
HETATM    2  O   UNL     1       2.973  -0.851   0.000  1.00  0.00    -0.330 OA
HETATM    3  C   UNL     1       4.272   1.399   0.000  1.00  0.00     0.136 A 
HETATM    4  C   UNL     1       4.272  -0.101   0.000  1.00  0.00     0.100 A 
HETATM    5  C   UNL     1       5.571  -0.851   0.000  1.00  0.00     0.084 A 
HETATM    6  C   UNL     1       5.571   2.150   0.000  1.00  0.00     0.135 A 
HETATM    7  C   UNL     1       6.870  -0.101   0.000  1.00  0.00     0.039 A 
HETATM    8  C   UNL     1       6.870   1.399   0.000  1.00  0.00     0.102 A 
HETATM    9  N   UNL     1       8.169   2.150   0.000  1.00  0.00    -0.243 NA
HETATM   10  C   UNL     1       8.169  -0.851   0.000  1.00  0.00     0.153 A 
HETATM   11  C   UNL     1       9.468   1.399   0.000  1.00  0.00     0.252 A 
HETATM   12  N   UNL     1       9.468  -0.101   0.000  1.00  0.00    -0.227 NA
HETATM   13  C   UNL     1       1.674   1.399   0.000  1.00  0.00     0.182 A 
HETATM   14  C   UNL     1       1.674  -0.101   0.000  1.00  0.00     0.181 A 
ENDROOT
BRANCH  10  15
HETATM   15  N   UNL     1       8.169  -2.350   0.000  1.00  0.00    -0.253 NA
BRANCH  15  16
HETATM   16  C   UNL     1       9.468  -3.100   0.000  1.00  0.00     0.127 C 
BRANCH  16  17
HETATM   17  C   UNL     1      10.767  -2.350   0.000  1.00  0.00     0.026 C 
BRANCH  17  18
HETATM   18  C   UNL     1      12.066  -3.100   0.000  1.00  0.00     0.005 C 
BRANCH  18  19
HETATM   19  C   UNL     1      13.365  -2.350   0.000  1.00  0.00     0.036 C 
BRANCH  19  20
HETATM   20  C   UNL     1      14.664  -3.100   0.000  1.00  0.00     0.182 C 
HETATM   21  O   UNL     1      14.664  -4.601   0.000  1.00  0.00    -0.221 OA
ENDBRANCH  19  20
ENDBRANCH  18  19
ENDBRANCH  17  18
ENDBRANCH  16  17
ENDBRANCH  15  16
ENDBRANCH  10  15
BRANCH   6  22
HETATM   22  O   UNL     1       5.571   3.650   0.000  1.00  0.00    -0.325 OA
HETATM   23  C   UNL     1       6.870   4.399   0.000  1.00  0.00     0.182 C 
ENDBRANCH   6  22
TORSDOF 7
