REMARK  1 active torsions:
REMARK  status: ('A' for Active; 'I' for Inactive)
REMARK    1  A    between atoms: O_6  and  C_19 
ROOT
HETATM    1  O   UNL     1       4.912   1.030   0.000  1.00  0.00     0.000 OA
HETATM    2  O   UNL     1       4.912  -1.970   0.000  1.00  0.00    -0.335 OA
HETATM    3  C   UNL     1       6.211   0.280   0.000  1.00  0.00     0.022 A 
HETATM    4  C   UNL     1       6.211  -1.220   0.000  1.00  0.00     0.076 A 
HETATM    5  C   UNL     1       7.510   1.030   0.000  1.00  0.00     0.020 A 
HETATM    6  O   UNL     1       7.510   2.530   0.000  1.00  0.00     0.000 OA
HETATM    7  C   UNL     1       7.510  -1.970   0.000  1.00  0.00     0.081 A 
HETATM    8  C   UNL     1       8.809  -1.220   0.000  1.00  0.00     0.030 A 
HETATM    9  C   UNL     1       8.809   0.280   0.000  1.00  0.00     0.077 A 
HETATM   10  N   UNL     1      10.108   1.030   0.000  1.00  0.00    -0.245 NA
HETATM   11  C   UNL     1      10.108  -1.970   0.000  1.00  0.00     0.133 A 
HETATM   12 CL   UNL     1      10.108  -3.470   0.000  1.00  0.00    -0.062 Cl
HETATM   13  C   UNL     1      11.408   0.280   0.000  1.00  0.00     0.252 A 
HETATM   14  N   UNL     1      11.408  -1.220   0.000  1.00  0.00    -0.233 NA
HETATM   15  C   UNL     1       4.912   2.530   0.000  1.00  0.00     0.000 A 
HETATM   16  C   UNL     1       6.211   3.280   0.000  1.00  0.00     0.000 A 
HETATM   17  C   UNL     1       3.613  -1.220   0.000  1.00  0.00     0.148 A 
HETATM   18  C   UNL     1       3.613   0.280   0.000  1.00  0.00     0.035 A 
ENDROOT
BRANCH   6  19
HETATM   19  C   UNL     1       8.809   3.280   0.000  1.00  0.00     0.000 C 
HETATM   20  C   UNL     1       8.809   4.780   0.000  1.00  0.00     0.000 C 
ENDBRANCH   6  19
TORSDOF 1
