REMARK  1 active torsions:
REMARK  status: ('A' for Active; 'I' for Inactive)
REMARK    1  A    between atoms: C_2  and  N_3 
ROOT
HETATM    1  N   UNL     1       5.799   3.348   0.000  1.00  0.00    -0.331 N 
HETATM    2  C   UNL     1       6.549   2.049   0.000  1.00  0.00     0.206 A 
HETATM    3  C   UNL     1       6.549   4.647   0.000  1.00  0.00     0.206 A 
HETATM    4  H   UNL     1       8.799   5.946   0.000  1.00  0.00     0.164 HD
HETATM    5  N   UNL     1       8.049   2.049   0.000  1.00  0.00    -0.333 N 
HETATM    6  N   UNL     1       8.049   4.647   0.000  1.00  0.00    -0.333 N 
HETATM    7  H   UNL     1       8.799   0.750   0.000  1.00  0.00     0.164 HD
HETATM    8  C   UNL     1       8.799   3.348   0.000  1.00  0.00     0.172 A 
HETATM    9  S   UNL     1      10.299   3.348   0.000  1.00  0.00    -0.041 SA
ENDROOT
BRANCH   1  10
HETATM   10  C   UNL     1       4.299   3.348   0.000  1.00  0.00     0.082 A 
HETATM   11  C   UNL     1       2.799   3.348   0.000  1.00  0.00     0.029 A 
HETATM   12  C   UNL     1       2.049   4.647   0.000  1.00  0.00     0.020 A 
HETATM   13  C   UNL     1       1.299   5.946   0.000  1.00  0.00     0.004 C 
HETATM   14  C   UNL     1       3.348   5.397   0.000  1.00  0.00    -0.029 A 
HETATM   15  C   UNL     1       0.750   3.897   0.000  1.00  0.00     0.004 C 
HETATM   16  C   UNL     1       4.299   4.848   0.000  1.00  0.00    -0.011 A 
HETATM   17  C   UNL     1       4.299   1.848   0.000  1.00  0.00     0.027 C 
ENDBRANCH   1  10
TORSDOF 1
