REMARK  1 active torsions:
REMARK  status: ('A' for Active; 'I' for Inactive)
REMARK    1  A    between atoms: C_7  and  C_19 
ROOT
HETATM    1  C   UNL     1      -6.306   0.510   0.000  1.00  0.00     0.000 A 
HETATM    2  C   UNL     1      -5.174   1.494   0.000  1.00  0.00     0.002 A 
HETATM    3  C   UNL     1      -6.020  -0.962   0.000  1.00  0.00     0.002 A 
HETATM    4  C   UNL     1      -3.756   1.006   0.000  1.00  0.00     0.028 A 
HETATM    5  C   UNL     1      -4.601  -1.451   0.000  1.00  0.00     0.028 A 
HETATM    6  C   UNL     1      -3.470  -0.466   0.000  1.00  0.00     0.112 A 
HETATM    7  C   UNL     1      -2.069   0.071   0.000  1.00  0.00     0.073 A 
HETATM    8  N   UNL     1      -0.669   0.609   0.000  1.00  0.00    -0.272 NA
HETATM    9  N   UNL     1      -2.697  -1.752   0.000  1.00  0.00    -0.292 NA
HETATM   10  C   UNL     1      -1.197  -1.726   0.000  1.00  0.00     0.148 A 
HETATM   11  C   UNL     1      -0.470  -0.414   0.000  1.00  0.00     0.139 A 
ENDROOT
BRANCH  11  12
HETATM   12  C   UNL     1       1.030  -0.387   0.000  1.00  0.00     0.035 A 
HETATM   13  C   UNL     1       1.757   0.925   0.000  1.00  0.00     0.055 A 
HETATM   14  C   UNL     1       3.257   0.951   0.000  1.00  0.00     0.090 A 
HETATM   15  O   UNL     1       3.984   2.263   0.000  1.00  0.00    -0.331 OA
HETATM   16  C   UNL     1       4.029  -0.335   0.000  1.00  0.00     0.090 A 
HETATM   17  C   UNL     1       5.484   2.289   0.000  1.00  0.00     0.181 A 
HETATM   18  C   UNL     1       6.256   1.004   0.000  1.00  0.00     0.181 A 
HETATM   19  O   UNL     1       5.529  -0.308   0.000  1.00  0.00    -0.331 OA
HETATM   20  C   UNL     1       3.302  -1.647   0.000  1.00  0.00     0.053 A 
HETATM   21  C   UNL     1       1.802  -1.673   0.000  1.00  0.00     0.010 A 
ENDBRANCH  11  12
TORSDOF 1
