REMARK  4 active torsions:
REMARK  status: ('A' for Active; 'I' for Inactive)
REMARK    1  A    between atoms: C_4  and  S_14 
REMARK    2  A    between atoms: C_12  and  C_18 
REMARK    3  A    between atoms: S_14  and  N_17 
REMARK    4  A    between atoms: N_17  and  C_18 
ROOT
HETATM    1  S   UNL     1       4.721   5.324   0.000  1.00  0.00     0.260 S 
HETATM    2  O   UNL     1       5.471   4.024   0.000  1.00  0.00    -0.203 OA
HETATM    3  O   UNL     1       3.971   6.623   0.000  1.00  0.00    -0.203 OA
ENDROOT
BRANCH   1   4
HETATM    4  C   UNL     1       3.422   4.574   0.000  1.00  0.00     0.129 A 
HETATM    5  C   UNL     1       2.123   5.324   0.000  1.00  0.00     0.020 A 
HETATM    6  C   UNL     1       0.824   4.574   0.000  1.00  0.00     0.040 A 
HETATM    7  C   UNL     1       0.824   3.074   0.000  1.00  0.00     0.302 A 
HETATM    8  C   UNL     1       2.123   2.324   0.000  1.00  0.00     0.040 A 
HETATM    9  N   UNL     1      -0.475   2.324   0.000  1.00  0.00     0.616 N 
HETATM   10  C   UNL     1       3.422   3.074   0.000  1.00  0.00     0.020 A 
ENDBRANCH   1   4
BRANCH   1  11
HETATM   11  N   UNL     1       6.020   6.074   0.000  1.00  0.00    -0.186 NA
BRANCH  11  12
HETATM   12  C   UNL     1       6.020   7.574   0.000  1.00  0.00     0.168 C 
BRANCH  12  13
HETATM   13  C   UNL     1       7.319   8.324   0.000  1.00  0.00     0.141 A 
HETATM   14  O   UNL     1       7.319   9.824   0.000  1.00  0.00    -0.355 OA
HETATM   15  C   UNL     1       8.618  10.574   0.000  1.00  0.00     0.142 A 
HETATM   16  C   UNL     1       9.917   9.824   0.000  1.00  0.00     0.032 A 
HETATM   17  C   UNL     1       9.917   8.324   0.000  1.00  0.00     0.005 A 
HETATM   18  C   UNL     1       8.618   7.574   0.000  1.00  0.00     0.032 A 
ENDBRANCH  12  13
ENDBRANCH  11  12
ENDBRANCH   1  11
TORSDOF 4
