REMARK  3 active torsions:
REMARK  status: ('A' for Active; 'I' for Inactive)
REMARK    1  A    between atoms: C_3  and  C_6 
REMARK    2  A    between atoms: C_8  and  N_20 
REMARK    3  A    between atoms: C_11  and  C_12 
REMARK       I    between atoms: C_11  and  N_20 
ROOT
HETATM    1  O   UNL     1       8.624   2.699   0.000  1.00  0.00    -0.169 OA
HETATM    2  C   UNL     1       8.729   1.202   0.000  1.00  0.00     0.214 C 
HETATM    3  N   UNL     1       7.486   0.363   0.000  1.00  0.00    -0.218 NA
ENDROOT
BRANCH   2   4
HETATM    4  C   UNL     1      10.077   0.545   0.000  1.00  0.00     0.090 A 
HETATM    5  C   UNL     1      10.182  -0.952   0.000  1.00  0.00     0.123 A 
HETATM    6  F   UNL     1       8.938  -1.790   0.000  1.00  0.00    -0.209 F 
HETATM    7  C   UNL     1      11.530  -1.609   0.000  1.00  0.00     0.057 A 
HETATM    8  C   UNL     1      12.774  -0.770   0.000  1.00  0.00     0.014 A 
HETATM    9  C   UNL     1      12.669   0.726   0.000  1.00  0.00     0.057 A 
HETATM   10  C   UNL     1      11.321   1.383   0.000  1.00  0.00     0.123 A 
HETATM   11  F   UNL     1      11.216   2.880   0.000  1.00  0.00    -0.209 F 
ENDBRANCH   2   4
BRANCH   3  12
HETATM   12  C   UNL     1       6.272   1.245   0.000  1.00  0.00     0.245 A 
HETATM   13  S   UNL     1       4.846   0.782   0.000  1.00  0.00    -0.071 SA
HETATM   14  C   UNL     1       3.964   1.995   0.000  1.00  0.00     0.237 A 
HETATM   15  N   UNL     1       4.846   3.209   0.000  1.00  0.00    -0.110 NA
HETATM   16  N   UNL     1       6.272   2.745   0.000  1.00  0.00    -0.096 NA
BRANCH  14  17
HETATM   17  C   UNL     1       2.464   1.995   0.000  1.00  0.00     0.423 C 
HETATM   18  F   UNL     1       0.964   1.995   0.000  1.00  0.00    -0.168 F 
HETATM   19  F   UNL     1       2.464   3.495   0.000  1.00  0.00    -0.168 F 
HETATM   20  F   UNL     1       2.464   0.495   0.000  1.00  0.00    -0.168 F 
ENDBRANCH  14  17
ENDBRANCH   3  12
TORSDOF 3
