REMARK  2 active torsions:
REMARK  status: ('A' for Active; 'I' for Inactive)
REMARK    1  A    between atoms: C_4  and  N_21 
REMARK    2  A    between atoms: C_12  and  N_21 
ROOT
HETATM    1  O   UNL     1      -2.324 -11.524   0.000  1.00  0.00    -0.163 OA
HETATM    2  C   UNL     1      -1.024  -9.274   0.000  1.00  0.00     0.127 A 
HETATM    3  C   UNL     1      -1.024 -10.774   0.000  1.00  0.00     0.301 A 
HETATM    4  C   UNL     1       0.275  -8.524   0.000  1.00  0.00     0.111 A 
HETATM    5  N   UNL     1       0.275 -11.524   0.000  1.00  0.00     0.022 N 
HETATM    6  H   UNL     1       0.275 -13.024   0.000  1.00  0.00     0.292 HD
HETATM    7  S   UNL     1       1.574  -9.274   0.000  1.00  0.00    -0.110 SA
HETATM    8  C   UNL     1       1.574 -10.774   0.000  1.00  0.00     0.238 A 
HETATM    9  C   UNL     1       1.730 -12.266   0.000  1.00  0.00     0.230 A 
HETATM   10  C   UNL     1       2.944 -10.164   0.000  1.00  0.00     0.084 A 
HETATM   11  C   UNL     1       3.198 -12.578   0.000  1.00  0.00     0.035 A 
HETATM   12  C   UNL     1       3.948 -11.279   0.000  1.00  0.00     0.015 A 
HETATM   13  C   UNL     1      -2.324  -8.524   0.000  1.00  0.00     0.027 C 
HETATM   14  N   UNL     1      -3.623  -7.774   0.000  1.00  0.00    -0.096 N 
ENDROOT
BRANCH   4  15
HETATM   15  N   UNL     1       0.275  -7.024   0.000  1.00  0.00    -0.248 NA
BRANCH  15  16
HETATM   16  C   UNL     1       1.574  -6.274   0.000  1.00  0.00     0.037 A 
HETATM   17  C   UNL     1       1.574  -4.774   0.000  1.00  0.00     0.041 A 
HETATM   18  C   UNL     1       2.873  -4.024   0.000  1.00  0.00     0.006 A 
HETATM   19  C   UNL     1       4.172  -4.774   0.000  1.00  0.00     0.001 A 
HETATM   20  C   UNL     1       2.873  -2.525   0.000  1.00  0.00     0.000 C 
HETATM   21  C   UNL     1       4.172  -6.274   0.000  1.00  0.00     0.006 A 
HETATM   22  C   UNL     1       2.873  -7.024   0.000  1.00  0.00     0.041 A 
ENDBRANCH  15  16
ENDBRANCH   4  15
TORSDOF 2
