REMARK  4 active torsions:
REMARK  status: ('A' for Active; 'I' for Inactive)
REMARK    1  A    between atoms: C_4  and  N_24 
REMARK    2  A    between atoms: C_8  and  C_10 
REMARK    3  A    between atoms: C_9  and  N_24 
REMARK    4  A    between atoms: C_16  and  O_21 
ROOT
HETATM    1  O   UNL     1       0.750  -5.946   0.000  1.00  0.00    -0.170 OA
HETATM    2  C   UNL     1       3.000  -4.647   0.000  1.00  0.00     0.120 A 
HETATM    3  C   UNL     1       2.250  -5.946   0.000  1.00  0.00     0.202 A 
HETATM    4  C   UNL     1       4.500  -4.647   0.000  1.00  0.00     0.123 A 
HETATM    5  N   UNL     1       3.000  -7.245   0.000  1.00  0.00    -0.327 N 
HETATM    6  H   UNL     1       2.250  -8.544   0.000  1.00  0.00     0.168 HD
HETATM    7  S   UNL     1       5.250  -5.946   0.000  1.00  0.00    -0.051 SA
HETATM    8  C   UNL     1       4.500  -7.245   0.000  1.00  0.00     0.082 A 
HETATM    9  C   UNL     1       2.250  -3.348   0.000  1.00  0.00     0.027 C 
HETATM   10  N   UNL     1       1.500  -2.049   0.000  1.00  0.00    -0.096 N 
ENDROOT
BRANCH   4  11
HETATM   11  N   UNL     1       5.250  -3.348   0.000  1.00  0.00    -0.247 NA
BRANCH  11  12
HETATM   12  C   UNL     1       6.750  -3.348   0.000  1.00  0.00     0.037 A 
HETATM   13  C   UNL     1       7.500  -2.049   0.000  1.00  0.00     0.041 A 
HETATM   14  C   UNL     1       9.000  -2.049   0.000  1.00  0.00     0.006 A 
HETATM   15  C   UNL     1       9.750  -3.348   0.000  1.00  0.00     0.001 A 
HETATM   16  C   UNL     1       9.750  -0.750   0.000  1.00  0.00     0.000 C 
HETATM   17  C   UNL     1       9.000  -4.647   0.000  1.00  0.00     0.006 A 
HETATM   18  C   UNL     1       7.500  -4.647   0.000  1.00  0.00     0.041 A 
ENDBRANCH  11  12
ENDBRANCH   4  11
BRANCH   8  19
HETATM   19  C   UNL     1       5.250  -8.544   0.000  1.00  0.00    -0.015 A 
HETATM   20  C   UNL     1       6.750  -8.544   0.000  1.00  0.00     0.031 A 
HETATM   21  C   UNL     1       7.500  -9.843   0.000  1.00  0.00     0.060 A 
HETATM   22  C   UNL     1       6.750 -11.142   0.000  1.00  0.00     0.127 A 
HETATM   23  C   UNL     1       5.250 -11.142   0.000  1.00  0.00     0.097 A 
HETATM   24  O   UNL     1       7.500 -12.441   0.000  1.00  0.00    -0.193 OA
HETATM   25  C   UNL     1       4.500  -9.843   0.000  1.00  0.00     0.077 A 
BRANCH  23  26
HETATM   26  O   UNL     1       4.500 -12.441   0.000  1.00  0.00    -0.330 OA
HETATM   27  C   UNL     1       5.250 -13.740   0.000  1.00  0.00     0.181 C 
ENDBRANCH  23  26
ENDBRANCH   8  19
TORSDOF 4
