REMARK  1 active torsions:
REMARK  status: ('A' for Active; 'I' for Inactive)
REMARK    1  A    between atoms: C_17  and  C_21 
ROOT
HETATM    1  C   UNL     1      -4.601  -9.468   0.000  1.00  0.00     0.022 A 
HETATM    2  C   UNL     1      -5.351 -10.767   0.000  1.00  0.00     0.009 A 
HETATM    3  C   UNL     1      -3.100  -9.468   0.000  1.00  0.00    -0.043 A 
HETATM    4  C   UNL     1      -4.601 -12.066   0.000  1.00  0.00     0.023 A 
HETATM    5  C   UNL     1      -2.350 -10.767   0.000  1.00  0.00     0.002 A 
HETATM    6  C   UNL     1      -3.100 -12.066   0.000  1.00  0.00    -0.033 A 
HETATM    7  N   UNL     1      -0.101  -9.468   0.000  1.00  0.00    -0.135 N 
HETATM    8  C   UNL     1      -0.851 -10.767   0.000  1.00  0.00     0.095 A 
HETATM    9  C   UNL     1      -2.350 -13.365   0.000  1.00  0.00     0.080 A 
HETATM   10  O   UNL     1       1.399  -9.468   0.000  1.00  0.00    -0.232 OA
HETATM   11  C   UNL     1      -0.101 -12.066   0.000  1.00  0.00     0.106 A 
HETATM   12  S   UNL     1      -0.851 -13.365   0.000  1.00  0.00    -0.129 SA
HETATM   13  C   UNL     1       1.399  -6.870   0.000  1.00  0.00    -0.012 A 
HETATM   14  C   UNL     1      -0.101  -6.870   0.000  1.00  0.00    -0.032 A 
HETATM   15  O   UNL     1      -0.851  -8.169   0.000  1.00  0.00     0.000 OA
HETATM   16  C   UNL     1       2.150  -5.571   0.000  1.00  0.00     0.048 A 
HETATM   17  C   UNL     1       1.399  -4.272   0.000  1.00  0.00    -0.018 A 
HETATM   18  C   UNL     1      -0.851  -5.571   0.000  1.00  0.00     0.030 A 
HETATM   19  C   UNL     1      -0.101  -4.272   0.000  1.00  0.00     0.029 A 
HETATM   20  C   UNL     1       2.150  -8.169   0.000  1.00  0.00     0.199 A 
HETATM   21  C   UNL     1      -2.350  -8.169   0.000  1.00  0.00     0.026 A 
ENDROOT
BRANCH  17  22
HETATM   22  C   UNL     1       2.150  -2.973   0.000  1.00  0.00     0.101 C 
HETATM   23  O   UNL     1       3.650  -2.973   0.000  1.00  0.00    -0.196 OA
HETATM   24  C   UNL     1       1.399  -1.674   0.000  1.00  0.00     0.060 C 
ENDBRANCH  17  22
TORSDOF 1
