REMARK  3 active torsions:
REMARK  status: ('A' for Active; 'I' for Inactive)
REMARK    1  A    between atoms: C_6  and  N_7 
REMARK    2  A    between atoms: N_10  and  C_20 
REMARK    3  A    between atoms: N_11  and  C_14 
ROOT
HETATM    1  N   UNL     1       8.381   5.946   0.000  1.00  0.00    -0.316 N 
HETATM    2  C   UNL     1       9.131   4.647   0.000  1.00  0.00     0.217 A 
HETATM    3  C   UNL     1       9.131   7.245   0.000  1.00  0.00     0.217 A 
HETATM    4  N   UNL     1      10.631   4.647   0.000  1.00  0.00    -0.293 N 
HETATM    5  N   UNL     1      10.631   7.245   0.000  1.00  0.00    -0.293 N 
HETATM    6  C   UNL     1      11.381   5.946   0.000  1.00  0.00     0.185 A 
HETATM    7  S   UNL     1      12.881   5.946   0.000  1.00  0.00    -0.040 SA
ENDROOT
BRANCH   1   8
HETATM    8  C   UNL     1       6.881   5.946   0.000  1.00  0.00     0.014 A 
HETATM    9  C   UNL     1       6.131   7.245   0.000  1.00  0.00     0.039 A 
HETATM   10  C   UNL     1       4.631   7.245   0.000  1.00  0.00     0.006 A 
HETATM   11  C   UNL     1       3.881   5.946   0.000  1.00  0.00     0.001 A 
HETATM   12  C   UNL     1       4.631   4.647   0.000  1.00  0.00     0.006 A 
HETATM   13  C   UNL     1       6.131   4.647   0.000  1.00  0.00     0.039 A 
ENDBRANCH   1   8
BRANCH   5  14
HETATM   14  C   UNL     1      11.381   8.544   0.000  1.00  0.00     0.018 A 
HETATM   15  C   UNL     1      10.631   9.843   0.000  1.00  0.00     0.039 A 
HETATM   16  C   UNL     1      11.381  11.142   0.000  1.00  0.00     0.006 A 
HETATM   17  C   UNL     1      12.881  11.142   0.000  1.00  0.00     0.001 A 
HETATM   18  C   UNL     1      13.631   9.843   0.000  1.00  0.00     0.006 A 
HETATM   19  C   UNL     1      12.881   8.544   0.000  1.00  0.00     0.039 A 
ENDBRANCH   5  14
BRANCH   4  20
HETATM   20  C   UNL     1      11.381   3.348   0.000  1.00  0.00     0.018 A 
HETATM   21  C   UNL     1      12.881   3.348   0.000  1.00  0.00     0.039 A 
HETATM   22  C   UNL     1      13.631   2.049   0.000  1.00  0.00     0.006 A 
HETATM   23  C   UNL     1      12.881   0.750   0.000  1.00  0.00     0.001 A 
HETATM   24  C   UNL     1      11.381   0.750   0.000  1.00  0.00     0.006 A 
HETATM   25  C   UNL     1      10.631   2.049   0.000  1.00  0.00     0.039 A 
ENDBRANCH   4  20
TORSDOF 3
