REMARK  3 active torsions:
REMARK  status: ('A' for Active; 'I' for Inactive)
REMARK    1  A    between atoms: C_9  and  N_29 
REMARK       I    between atoms: C_11  and  N_29 
REMARK       I    between atoms: C_11  and  N_30 
REMARK    2  A    between atoms: C_12  and  N_30 
REMARK    3  A    between atoms: C_20  and  N_33 
ROOT
HETATM    1  C   UNL     1       0.701 -14.730   0.000  1.00  0.00     0.047 A 
HETATM    2  C   UNL     1      -0.049 -13.431   0.000  1.00  0.00     0.087 A 
HETATM    3  C   UNL     1       2.201 -14.730   0.000  1.00  0.00     0.046 A 
HETATM    4  C   UNL     1       0.701 -12.132   0.000  1.00  0.00     0.062 A 
HETATM    5  C   UNL     1       2.951 -13.431   0.000  1.00  0.00     0.031 A 
HETATM    6  C   UNL     1       2.201 -12.132   0.000  1.00  0.00    -0.007 A 
HETATM    7  C   UNL     1       0.701  -9.534   0.000  1.00  0.00     0.283 A 
HETATM    8  O   UNL     1      -0.049  -8.235   0.000  1.00  0.00    -0.149 OA
HETATM    9  N   UNL     1      -0.049 -10.833   0.000  1.00  0.00    -0.209 NA
HETATM   10  C   UNL     1       2.951 -10.833   0.000  1.00  0.00     0.135 A 
HETATM   11  N   UNL     1       2.201  -9.534   0.000  1.00  0.00    -0.268 N 
ENDROOT
BRANCH   1  12
HETATM   12  N   UNL     1      -0.049 -16.029   0.000  1.00  0.00    -0.212 NA
HETATM   13  C   UNL     1      -1.549 -16.029   0.000  1.00  0.00     0.302 C 
HETATM   14  O   UNL     1      -2.299 -14.730   0.000  1.00  0.00    -0.147 OA
HETATM   15  N   UNL     1      -2.299 -17.328   0.000  1.00  0.00    -0.178 NA
BRANCH  15  16
HETATM   16  C   UNL     1      -3.799 -17.328   0.000  1.00  0.00     0.197 A 
HETATM   17  N   UNL     1      -4.681 -16.115   0.000  1.00  0.00    -0.225 NA
HETATM   18  C   UNL     1      -6.107 -16.578   0.000  1.00  0.00     0.063 A 
HETATM   19  C   UNL     1      -7.407 -15.828   0.000  1.00  0.00     0.046 A 
HETATM   20  C   UNL     1      -6.107 -18.078   0.000  1.00  0.00     0.024 A 
HETATM   21  C   UNL     1      -8.706 -16.578   0.000  1.00  0.00     0.007 A 
HETATM   22  C   UNL     1      -8.706 -18.078   0.000  1.00  0.00     0.006 A 
HETATM   23  C   UNL     1      -7.407 -18.828   0.000  1.00  0.00     0.034 A 
HETATM   24  S   UNL     1      -4.681 -18.542   0.000  1.00  0.00    -0.052 SA
ENDBRANCH  15  16
ENDBRANCH   1  12
BRANCH  11  25
HETATM   25  C   UNL     1       2.951  -8.235   0.000  1.00  0.00     0.178 A 
HETATM   26  N   UNL     1       2.341  -6.865   0.000  1.00  0.00    -0.227 NA
HETATM   27  C   UNL     1       3.455  -5.861   0.000  1.00  0.00     0.063 A 
HETATM   28  C   UNL     1       3.455  -4.361   0.000  1.00  0.00     0.046 A 
HETATM   29  C   UNL     1       4.755  -6.611   0.000  1.00  0.00     0.024 A 
HETATM   30  C   UNL     1       4.755  -3.611   0.000  1.00  0.00     0.007 A 
HETATM   31  C   UNL     1       6.053  -4.361   0.000  1.00  0.00     0.006 A 
HETATM   32  C   UNL     1       6.053  -5.861   0.000  1.00  0.00     0.034 A 
HETATM   33  S   UNL     1       4.443  -8.078   0.000  1.00  0.00    -0.053 SA
ENDBRANCH  11  25
TORSDOF 3
