REMARK  3 active torsions:
REMARK  status: ('A' for Active; 'I' for Inactive)
REMARK    1  A    between atoms: C_6  and  N_23 
REMARK       I    between atoms: C_8  and  N_23 
REMARK       I    between atoms: C_8  and  N_24 
REMARK    2  A    between atoms: C_9  and  N_24 
REMARK    3  A    between atoms: C_17  and  N_27 
ROOT
HETATM    1  C   UNL     1       1.976   7.520   0.000  1.00  0.00     0.047 A 
HETATM    2  C   UNL     1       1.226   8.819   0.000  1.00  0.00     0.087 A 
HETATM    3  C   UNL     1       3.475   7.520   0.000  1.00  0.00     0.046 A 
HETATM    4  C   UNL     1       1.976  10.118   0.000  1.00  0.00     0.062 A 
HETATM    5  C   UNL     1       4.226   8.819   0.000  1.00  0.00     0.031 A 
HETATM    6  C   UNL     1       3.475  10.118   0.000  1.00  0.00    -0.007 A 
HETATM    7  C   UNL     1       1.976  12.716   0.000  1.00  0.00     0.281 A 
HETATM    8  O   UNL     1       1.226  14.015   0.000  1.00  0.00    -0.149 OA
HETATM    9  N   UNL     1       1.226  11.417   0.000  1.00  0.00    -0.209 NA
HETATM   10  C   UNL     1       4.226  11.417   0.000  1.00  0.00     0.133 A 
HETATM   11  N   UNL     1       3.475  12.716   0.000  1.00  0.00    -0.293 N 
ENDROOT
BRANCH   1  12
HETATM   12  N   UNL     1       1.226   6.221   0.000  1.00  0.00    -0.212 NA
HETATM   13  C   UNL     1      -0.275   6.221   0.000  1.00  0.00     0.299 C 
HETATM   14  O   UNL     1      -1.024   7.520   0.000  1.00  0.00    -0.147 OA
HETATM   15  N   UNL     1      -1.024   4.922   0.000  1.00  0.00    -0.210 NA
BRANCH  15  16
HETATM   16  C   UNL     1      -2.525   4.922   0.000  1.00  0.00     0.065 A 
HETATM   17  C   UNL     1      -3.275   6.221   0.000  1.00  0.00     0.046 A 
HETATM   18  C   UNL     1      -4.774   6.221   0.000  1.00  0.00     0.032 A 
HETATM   19  C   UNL     1      -5.524   4.922   0.000  1.00  0.00     0.121 A 
HETATM   20  N   UNL     1      -4.774   3.623   0.000  1.00  0.00    -0.289 NA
HETATM   21  C   UNL     1      -3.275   3.623   0.000  1.00  0.00     0.161 A 
ENDBRANCH  15  16
ENDBRANCH   1  12
BRANCH  11  22
HETATM   22  C   UNL     1       4.226  14.015   0.000  1.00  0.00     0.042 A 
HETATM   23  C   UNL     1       3.475  15.314   0.000  1.00  0.00     0.043 A 
HETATM   24  C   UNL     1       4.226  16.613   0.000  1.00  0.00     0.032 A 
HETATM   25  C   UNL     1       5.726  16.613   0.000  1.00  0.00     0.121 A 
HETATM   26  N   UNL     1       6.476  15.314   0.000  1.00  0.00    -0.290 NA
HETATM   27  C   UNL     1       5.726  14.015   0.000  1.00  0.00     0.159 A 
ENDBRANCH  11  22
TORSDOF 3
