REMARK  2 active torsions:
REMARK  status: ('A' for Active; 'I' for Inactive)
REMARK    1  A    between atoms: C_7  and  C_8 
REMARK    2  A    between atoms: C_16  and  N_20 
ROOT
HETATM    1  C   UNL     1      -2.123   0.320   0.000  1.00  0.00     0.175 A 
HETATM    2  O   UNL     1      -1.399   1.633   0.000  1.00  0.00    -0.310 OA
HETATM    3  C   UNL     1       0.123  -0.675   0.000  1.00  0.00     0.075 A 
HETATM    4  C   UNL     1       1.110  -1.806   0.000  1.00  0.00    -0.028 A 
HETATM    5  C   UNL     1       0.609   0.744   0.000  1.00  0.00     0.036 A 
HETATM    6  C   UNL     1       0.929  -3.295   0.000  1.00  0.00     0.017 A 
HETATM    7  C   UNL     1       2.582  -1.517   0.000  1.00  0.00     0.022 A 
HETATM    8  C   UNL     1       2.290  -3.926   0.000  1.00  0.00     0.004 A 
HETATM    9  C   UNL     1       2.081   1.032   0.000  1.00  0.00     0.033 A 
HETATM   10  C   UNL     1       3.311  -2.828   0.000  1.00  0.00     0.004 A 
HETATM   11  C   UNL     1       3.067  -0.098   0.000  1.00  0.00     0.047 A 
HETATM   12  N   UNL     1      -1.349  -0.964   0.000  1.00  0.00    -0.224 NA
HETATM   13  C   UNL     1      -0.377   1.874   0.000  1.00  0.00     0.180 A 
HETATM   14  C   UNL     1      -0.533  -2.960   0.000  1.00  0.00     0.004 C 
HETATM   15  C   UNL     1       0.444  -4.714   0.000  1.00  0.00     0.004 C 
HETATM   16  C   UNL     1       4.410  -3.849   0.000  1.00  0.00     0.000 C 
HETATM   17  C   UNL     1       4.332  -1.729   0.000  1.00  0.00     0.004 A 
ENDROOT
BRANCH   1  18
HETATM   18  C   UNL     1      -3.623   0.291   0.000  1.00  0.00     0.025 A 
HETATM   19  C   UNL     1      -4.398   1.575   0.000  1.00  0.00     0.035 A 
HETATM   20  C   UNL     1      -5.898   1.547   0.000  1.00  0.00     0.038 A 
HETATM   21 CL   UNL     1      -3.673   2.889   0.000  1.00  0.00    -0.087 Cl
HETATM   22  C   UNL     1      -6.622   0.233   0.000  1.00  0.00     0.006 A 
HETATM   23  C   UNL     1      -5.848  -1.051   0.000  1.00  0.00     0.005 A 
HETATM   24  C   UNL     1      -4.348  -1.022   0.000  1.00  0.00     0.030 A 
ENDBRANCH   1  18
BRANCH   9  25
HETATM   25  N   UNL     1       2.567   2.452   0.000  1.00  0.00    -0.351 N 
HETATM   26  C   UNL     1       1.704   3.679   0.000  1.00  0.00     0.101 A 
HETATM   27  C   UNL     1       2.605   4.878   0.000  1.00  0.00     0.026 A 
HETATM   28  C   UNL     1       4.024   4.393   0.000  1.00  0.00     0.026 A 
HETATM   29  C   UNL     1       4.001   2.893   0.000  1.00  0.00     0.101 A 
ENDBRANCH   9  25
TORSDOF 2
