REMARK  3 active torsions:
REMARK  status: ('A' for Active; 'I' for Inactive)
REMARK    1  A    between atoms: C_10  and  S_12 
REMARK    2  A    between atoms: S_12  and  C_26 
REMARK    3  A    between atoms: C_15  and  C_26 
ROOT
HETATM    1  C   UNL     1      -2.324   7.024   0.000  1.00  0.00     0.007 A 
HETATM    2  C   UNL     1      -2.324   5.524   0.000  1.00  0.00     0.007 A 
HETATM    3  C   UNL     1      -1.024   7.774   0.000  1.00  0.00     0.047 A 
HETATM    4  C   UNL     1      -1.024   4.774   0.000  1.00  0.00     0.045 A 
HETATM    5  C   UNL     1       0.275   7.024   0.000  1.00  0.00     0.071 A 
HETATM    6  C   UNL     1       0.275   5.524   0.000  1.00  0.00     0.050 A 
HETATM    7  N   UNL     1       1.574   7.774   0.000  1.00  0.00    -0.241 NA
HETATM    8  N   UNL     1       1.574   4.774   0.000  1.00  0.00    -0.332 N 
HETATM    9  C   UNL     1       1.885   3.307   0.000  1.00  0.00     0.106 A 
HETATM   10  C   UNL     1       2.873   7.024   0.000  1.00  0.00     0.118 A 
HETATM   11  C   UNL     1       2.873   5.524   0.000  1.00  0.00     0.060 A 
HETATM   12  C   UNL     1       3.987   4.521   0.000  1.00  0.00     0.048 A 
HETATM   13  C   UNL     1       3.377   3.151   0.000  1.00  0.00     0.031 A 
ENDROOT
BRANCH  10  14
HETATM   14  S   UNL     1       4.172   7.774   0.000  1.00  0.00    -0.089 SA
BRANCH  14  15
HETATM   15  C   UNL     1       5.471   7.024   0.000  1.00  0.00     0.088 C 
BRANCH  15  16
HETATM   16  C   UNL     1       6.770   7.774   0.000  1.00  0.00    -0.006 A 
HETATM   17  C   UNL     1       6.770   9.274   0.000  1.00  0.00     0.085 A 
HETATM   18  O   UNL     1       5.471  10.024   0.000  1.00  0.00    -0.303 OA
HETATM   19  C   UNL     1       8.069  10.024   0.000  1.00  0.00     0.012 A 
HETATM   20  C   UNL     1       5.471  11.524   0.000  1.00  0.00     0.299 A 
HETATM   21  O   UNL     1       6.770  12.274   0.000  1.00  0.00    -0.322 OA
HETATM   22  C   UNL     1       8.069  11.524   0.000  1.00  0.00     0.170 A 
HETATM   23  C   UNL     1       9.368   9.274   0.000  1.00  0.00     0.060 A 
HETATM   24  C   UNL     1       9.368   7.774   0.000  1.00  0.00     0.022 A 
HETATM   25  C   UNL     1       8.069   7.024   0.000  1.00  0.00     0.059 A 
HETATM   26 CL   UNL     1      10.667   7.024   0.000  1.00  0.00    -0.091 Cl
ENDBRANCH  15  16
ENDBRANCH  14  15
ENDBRANCH  10  14
TORSDOF 3
