REMARK  1 active torsions:
REMARK  status: ('A' for Active; 'I' for Inactive)
REMARK    1  A    between atoms: C_4  and  N_6 
ROOT
HETATM    1  C   UNL     1       1.029   3.188   0.000  1.00  0.00     0.152 A 
HETATM    2  S   UNL     1       2.242   4.069   0.000  1.00  0.00    -0.057 SA
HETATM    3  N   UNL     1       1.492   1.761   0.000  1.00  0.00    -0.088 NA
HETATM    4  C   UNL     1       3.456   3.188   0.000  1.00  0.00     0.183 A 
HETATM    5  N   UNL     1       2.992   1.761   0.000  1.00  0.00    -0.155 NA
HETATM    6  C   UNL     1      -0.398   3.651   0.000  1.00  0.00     0.034 C 
ENDROOT
BRANCH   4   7
HETATM    7  N   UNL     1       4.883   3.651   0.000  1.00  0.00    -0.328 N 
HETATM    8  C   UNL     1       5.346   5.078   0.000  1.00  0.00     0.103 A 
HETATM    9  C   UNL     1       6.846   5.078   0.000  1.00  0.00     0.026 A 
HETATM   10  C   UNL     1       7.310   3.651   0.000  1.00  0.00     0.026 A 
HETATM   11  C   UNL     1       6.096   2.769   0.000  1.00  0.00     0.103 A 
ENDBRANCH   4   7
TORSDOF 1
