REMARK  0 active torsions:
REMARK  status: ('A' for Active; 'I' for Inactive)
ROOT
HETATM    1  N   UNL     1       0.750   4.098   0.000  1.00  0.00    -0.246 NA
HETATM    2  C   UNL     1       0.750   2.598   0.000  1.00  0.00     0.152 A 
HETATM    3  C   UNL     1       2.177   4.562   0.000  1.00  0.00     0.181 A 
HETATM    4  C   UNL     1       2.177   2.135   0.000  1.00  0.00     0.135 A 
HETATM    5  N   UNL     1       3.058   3.348   0.000  1.00  0.00    -0.305 N 
HETATM    6  C   UNL     1       4.558   3.348   0.000  1.00  0.00     0.074 A 
HETATM    7 CL   UNL     1       4.558   5.946   0.000  1.00  0.00    -0.104 Cl
HETATM    8 CL   UNL     1       4.558   0.750   0.000  1.00  0.00    -0.086 Cl
HETATM    9  C   UNL     1       5.308   4.647   0.000  1.00  0.00     0.048 A 
HETATM   10  C   UNL     1       5.308   2.049   0.000  1.00  0.00     0.052 A 
HETATM   11  C   UNL     1       6.808   4.647   0.000  1.00  0.00     0.040 A 
HETATM   12  C   UNL     1       6.808   2.049   0.000  1.00  0.00     0.040 A 
HETATM   13  C   UNL     1       7.558   3.348   0.000  1.00  0.00     0.011 A 
HETATM   14  S   UNL     1       2.640   5.988   0.000  1.00  0.00     0.007 SA
ENDROOT
TORSDOF 0
