REMARK  2 active torsions:
REMARK  status: ('A' for Active; 'I' for Inactive)
REMARK    1  A    between atoms: C_10  and  C_12 
REMARK    2  A    between atoms: C_15  and  C_16 
ROOT
HETATM    1  C   UNL     1       9.337   1.036   0.000  1.00  0.00     0.111 A 
HETATM    2  C   UNL     1       8.455   2.250   0.000  1.00  0.00     0.090 A 
HETATM    3  N   UNL     1       9.337   3.463   0.000  1.00  0.00    -0.242 NA
HETATM    4  S   UNL     1      10.764   1.500   0.000  1.00  0.00    -0.089 SA
HETATM    5  C   UNL     1      10.764   3.000   0.000  1.00  0.00     0.099 A 
ENDROOT
BRANCH   2   6
HETATM    6  C   UNL     1       6.955   2.250   0.000  1.00  0.00     0.096 A 
HETATM    7  C   UNL     1       6.074   3.463   0.000  1.00  0.00     0.077 A 
HETATM    8  C   UNL     1       4.647   3.000   0.000  1.00  0.00    -0.014 A 
HETATM    9  C   UNL     1       3.348   3.750   0.000  1.00  0.00     0.058 A 
HETATM   10  C   UNL     1       4.647   1.500   0.000  1.00  0.00     0.070 A 
HETATM   11  C   UNL     1       2.049   3.000   0.000  1.00  0.00     0.018 A 
HETATM   12 CL   UNL     1       0.750   3.750   0.000  1.00  0.00    -0.091 Cl
HETATM   13  C   UNL     1       2.049   1.500   0.000  1.00  0.00     0.041 A 
HETATM   14  C   UNL     1       3.348   0.750   0.000  1.00  0.00     0.056 A 
HETATM   15  O   UNL     1       6.074   1.036   0.000  1.00  0.00    -0.315 OA
ENDBRANCH   2   6
BRANCH   5  16
HETATM   16  C   UNL     1      11.977   3.882   0.000  1.00  0.00    -0.020 A 
HETATM   17  C   UNL     1      11.820   5.373   0.000  1.00  0.00     0.029 A 
HETATM   18  C   UNL     1      13.034   6.255   0.000  1.00  0.00     0.038 A 
HETATM   19  C   UNL     1      14.404   5.645   0.000  1.00  0.00     0.014 A 
HETATM   20  C   UNL     1      14.561   4.153   0.000  1.00  0.00     0.038 A 
HETATM   21 CL   UNL     1      15.618   6.527   0.000  1.00  0.00    -0.092 Cl
HETATM   22  C   UNL     1      13.348   3.272   0.000  1.00  0.00     0.029 A 
ENDBRANCH   5  16
TORSDOF 2
