REMARK  8 active torsions:
REMARK  status: ('A' for Active; 'I' for Inactive)
REMARK    1  A    between atoms: N_1  and  C_2 
REMARK    2  A    between atoms: N_1  and  C_12 
REMARK    3  A    between atoms: N_1  and  C_14 
REMARK    4  A    between atoms: C_2  and  O_4 
REMARK    5  A    between atoms: O_4  and  C_5 
REMARK    6  A    between atoms: N_6  and  C_16 
REMARK    7  A    between atoms: C_16  and  C_17 
REMARK    8  A    between atoms: C_17  and  C_18 
ROOT
HETATM    1  C   UNL     1       5.946   4.500   0.000  1.00  0.00     0.150 A 
HETATM    2  N   UNL     1       5.946   3.000   0.000  1.00  0.00    -0.289 N 
HETATM    3  C   UNL     1       7.245   5.250   0.000  1.00  0.00     0.111 A 
HETATM    4  C   UNL     1       7.245   2.250   0.000  1.00  0.00     0.203 A 
HETATM    5  S   UNL     1       7.245   0.750   0.000  1.00  0.00    -0.038 SA
HETATM    6  N   UNL     1       8.544   3.000   0.000  1.00  0.00    -0.227 NA
HETATM    7  C   UNL     1       8.544   4.500   0.000  1.00  0.00     0.048 A 
HETATM    8  C   UNL     1       9.843   5.250   0.000  1.00  0.00     0.048 C 
ENDROOT
BRANCH   1   9
HETATM    9  O   UNL     1       4.647   5.250   0.000  1.00  0.00    -0.269 OA
BRANCH   9  10
HETATM   10  C   UNL     1       4.908   6.727   0.000  1.00  0.00     0.220 C 
HETATM   11  S   UNL     1       6.317   7.240   0.000  1.00  0.00    -0.033 SA
BRANCH  10  12
HETATM   12  N   UNL     1       3.759   7.691   0.000  1.00  0.00    -0.321 N 
BRANCH  12  13
HETATM   13  C   UNL     1       4.019   9.169   0.000  1.00  0.00     0.104 C 
HETATM   14  C   UNL     1       2.870  10.133   0.000  1.00  0.00     0.026 C 
ENDBRANCH  12  13
BRANCH  12  15
HETATM   15  C   UNL     1       2.349   7.178   0.000  1.00  0.00     0.104 C 
HETATM   16  C   UNL     1       1.200   8.143   0.000  1.00  0.00     0.026 C 
ENDBRANCH  12  15
ENDBRANCH  10  12
ENDBRANCH   9  10
ENDBRANCH   1   9
BRANCH   2  17
HETATM   17  C   UNL     1       4.647   2.250   0.000  1.00  0.00     0.110 C 
BRANCH  17  18
HETATM   18  C   UNL     1       3.348   3.000   0.000  1.00  0.00     0.025 C 
BRANCH  18  19
HETATM   19  C   UNL     1       2.049   2.250   0.000  1.00  0.00     0.002 C 
HETATM   20  C   UNL     1       0.750   3.000   0.000  1.00  0.00     0.000 C 
ENDBRANCH  18  19
ENDBRANCH  17  18
ENDBRANCH   2  17
TORSDOF 8
