REMARK  2 active torsions:
REMARK  status: ('A' for Active; 'I' for Inactive)
REMARK    1  A    between atoms: C_7  and  N_15 
REMARK       I    between atoms: C_8  and  N_15 
REMARK       I    between atoms: C_8  and  N_16 
REMARK    2  A    between atoms: C_10  and  N_16 
ROOT
HETATM    1  C   UNL     1       5.524   4.922   0.000  1.00  0.00     0.302 C 
HETATM    2  O   UNL     1       4.774   6.221   0.000  1.00  0.00    -0.147 OA
HETATM    3  N   UNL     1       4.774   3.623   0.000  1.00  0.00    -0.212 NA
HETATM    4  N   UNL     1       7.024   4.922   0.000  1.00  0.00    -0.179 NA
ENDROOT
BRANCH   3   5
HETATM    5  C   UNL     1       3.275   3.623   0.000  1.00  0.00     0.045 A 
HETATM    6  C   UNL     1       2.525   2.324   0.000  1.00  0.00     0.075 A 
HETATM    7  C   UNL     1       1.024   2.324   0.000  1.00  0.00     0.019 A 
HETATM    8  C   UNL     1       0.275   3.623   0.000  1.00  0.00     0.034 A 
HETATM    9 CL   UNL     1       0.275   1.024   0.000  1.00  0.00    -0.091 Cl
HETATM   10  C   UNL     1       1.024   4.922   0.000  1.00  0.00     0.011 A 
HETATM   11  C   UNL     1       2.525   4.922   0.000  1.00  0.00     0.042 A 
ENDBRANCH   3   5
BRANCH   4  12
HETATM   12  C   UNL     1       7.774   6.221   0.000  1.00  0.00     0.189 A 
HETATM   13  N   UNL     1       7.164   7.591   0.000  1.00  0.00    -0.247 NA
HETATM   14  C   UNL     1       8.279   8.595   0.000  1.00  0.00     0.140 A 
HETATM   15  C   UNL     1       9.578   7.845   0.000  1.00  0.00     0.091 A 
HETATM   16  S   UNL     1       9.266   6.378   0.000  1.00  0.00    -0.074 SA
ENDBRANCH   4  12
TORSDOF 2
