REMARK  7 active torsions:
REMARK  status: ('A' for Active; 'I' for Inactive)
REMARK    1  A    between atoms: C_3  and  CL_12 
REMARK    2  A    between atoms: C_8  and  C_13 
REMARK    3  A    between atoms: C_10  and  C_17 
REMARK    4  A    between atoms: CL_12  and  C_25 
REMARK    5  A    between atoms: C_17  and  C_19 
REMARK    6  A    between atoms: C_17  and  O_18 
REMARK    7  A    between atoms: C_25  and  S_26 
ROOT
HETATM    1  C   UNL     1       1.226   9.074   0.000  1.00  0.00     0.023 A 
HETATM    2  C   UNL     1       1.226   7.574   0.000  1.00  0.00     0.073 A 
HETATM    3  C   UNL     1       2.525   6.824   0.000  1.00  0.00     0.056 A 
HETATM    4  C   UNL     1       3.824   7.574   0.000  1.00  0.00     0.084 A 
HETATM    5  C   UNL     1       3.824   9.074   0.000  1.00  0.00    -0.001 A 
HETATM    6  C   UNL     1       2.525   9.824   0.000  1.00  0.00     0.061 A 
HETATM    7  N   UNL     1       5.123   6.824   0.000  1.00  0.00    -0.245 NA
HETATM    8  C   UNL     1       6.422   7.574   0.000  1.00  0.00     0.135 A 
HETATM    9  C   UNL     1       6.422   9.074   0.000  1.00  0.00     0.078 A 
HETATM   10  C   UNL     1       5.123   9.824   0.000  1.00  0.00     0.005 A 
HETATM   11 CL   UNL     1      -0.073   9.824   0.000  1.00  0.00    -0.091 Cl
ENDROOT
BRANCH  10  12
HETATM   12  C   UNL     1       5.123  11.324   0.000  1.00  0.00     0.099 C 
BRANCH  12  13
HETATM   13  C   UNL     1       6.422  12.074   0.000  1.00  0.00     0.075 A 
HETATM   14  C   UNL     1       6.422  13.574   0.000  1.00  0.00     0.048 A 
HETATM   15  C   UNL     1       7.721  14.324   0.000  1.00  0.00     0.008 A 
HETATM   16  C   UNL     1       9.020  13.574   0.000  1.00  0.00     0.027 A 
HETATM   17  C   UNL     1       9.020  12.074   0.000  1.00  0.00     0.125 A 
HETATM   18  N   UNL     1       7.721  11.324   0.000  1.00  0.00    -0.273 NA
ENDBRANCH  12  13
BRANCH  12  19
HETATM   19  O   UNL     1       3.824  12.074   0.000  1.00  0.00    -0.358 OA
HETATM   20  H   UNL     1       2.525  11.324   0.000  1.00  0.00     0.217 HD
ENDBRANCH  12  19
ENDBRANCH  10  12
BRANCH   8  21
HETATM   21  C   UNL     1       7.721   6.824   0.000  1.00  0.00     0.432 C 
HETATM   22  F   UNL     1       6.971   5.525   0.000  1.00  0.00    -0.165 F 
HETATM   23  F   UNL     1       8.471   8.123   0.000  1.00  0.00    -0.165 F 
HETATM   24  F   UNL     1       9.020   6.074   0.000  1.00  0.00    -0.165 F 
ENDBRANCH   8  21
BRANCH   3  25
HETATM   25 CL   UNL     1       2.525   5.324   0.000  1.00  0.00    -0.087 Cl
BRANCH  25  26
HETATM   26  C   UNL     2       1.500   4.098   0.000  1.00  0.00     0.072 C 
BRANCH  26  27
HETATM   27  S   UNL     2       0.750   2.799   0.000  1.00  0.00     0.186 S 
HETATM   28  O   UNL     2       2.049   2.049   0.000  1.00  0.00    -0.585 OA
HETATM   29  O   UNL     2       0.000   1.500   0.000  1.00  0.00    -0.585 OA
HETATM   30  O   UNL     2      -0.549   3.549   0.000  1.00  0.00    -0.585 OA
ENDBRANCH  26  27
ENDBRANCH  25  26
ENDBRANCH   3  25
TORSDOF 7
