REMARK  1 active torsions:
REMARK  status: ('A' for Active; 'I' for Inactive)
REMARK    1  A    between atoms: C_9  and  C_11 
ROOT
HETATM    1  C   UNL     1      -2.324  -5.524   0.000  1.00  0.00     0.029 A 
HETATM    2  C   UNL     1      -2.324  -7.024   0.000  1.00  0.00     0.108 A 
HETATM    3  O   UNL     1      -2.324 -10.024   0.000  1.00  0.00    -0.171 OA
HETATM    4  N   UNL     1      -1.024  -7.774   0.000  1.00  0.00    -0.308 N 
HETATM    5  C   UNL     1      -1.024  -9.274   0.000  1.00  0.00     0.192 A 
HETATM    6  C   UNL     1      -1.024  -4.774   0.000  1.00  0.00     0.029 A 
HETATM    7  C   UNL     1       0.275 -10.024   0.000  1.00  0.00     0.037 A 
HETATM    8  C   UNL     1       0.275  -7.024   0.000  1.00  0.00     0.056 A 
HETATM    9  C   UNL     1       0.275  -5.524   0.000  1.00  0.00    -0.011 A 
HETATM   10  C   UNL     1       1.574  -9.274   0.000  1.00  0.00     0.061 A 
HETATM   11  C   UNL     1       1.574  -7.774   0.000  1.00  0.00     0.023 A 
HETATM   12  C   UNL     1       2.873  -7.024   0.000  1.00  0.00     0.126 A 
HETATM   13  O   UNL     1       4.172  -7.774   0.000  1.00  0.00    -0.191 OA
HETATM   14  C   UNL     1       2.873  -5.524   0.000  1.00  0.00     0.023 A 
HETATM   15  C   UNL     1       4.172  -4.774   0.000  1.00  0.00     0.148 A 
HETATM   16  C   UNL     1       1.574  -4.774   0.000  1.00  0.00    -0.023 A 
HETATM   17  C   UNL     1       1.574  -3.275   0.000  1.00  0.00     0.052 A 
HETATM   18  N   UNL     1       4.172  -3.275   0.000  1.00  0.00    -0.290 NA
HETATM   19  C   UNL     1       2.873  -2.525   0.000  1.00  0.00     0.125 A 
ENDROOT
BRANCH   7  20
HETATM   20  C   UNL     1       0.275 -11.524   0.000  1.00  0.00     0.053 A 
HETATM   21  C   UNL     1      -1.024 -12.274   0.000  1.00  0.00     0.045 A 
HETATM   22  C   UNL     1      -1.024 -13.774   0.000  1.00  0.00     0.008 A 
HETATM   23  C   UNL     1       0.275 -14.524   0.000  1.00  0.00     0.027 A 
HETATM   24  C   UNL     1       1.574 -13.774   0.000  1.00  0.00     0.125 A 
HETATM   25  N   UNL     1       1.574 -12.274   0.000  1.00  0.00    -0.275 NA
ENDBRANCH   7  20
TORSDOF 1
