REMARK  2 active torsions:
REMARK  status: ('A' for Active; 'I' for Inactive)
REMARK    1  A    between atoms: C_3  and  AS_4 
REMARK    2  A    between atoms: C_7  and  N_9 
REMARK       I    between atoms: N_9  and  C_10 
ROOT
HETATM    1  C   UNL     1       2.973  -2.150   0.000  1.00  0.00     0.029 A 
HETATM    2  C   UNL     1       2.973  -3.650   0.000  1.00  0.00     0.060 A 
HETATM    3  C   UNL     1       4.272  -1.399   0.000  1.00  0.00    -0.045 A 
HETATM    4  C   UNL     1       4.272  -4.399   0.000  1.00  0.00     0.120 A 
HETATM    5  C   UNL     1       5.571  -3.650   0.000  1.00  0.00     0.060 A 
HETATM    6  C   UNL     1       5.571  -2.150   0.000  1.00  0.00     0.067 A 
HETATM    7  O   UNL     1       4.272  -5.899   0.000  1.00  0.00    -0.194 OA
ENDROOT
BRANCH   5   8
HETATM    8  N   UNL     1       6.870  -4.399   0.000  1.00  0.00    -0.338 N 
HETATM    9  H   UNL     1       6.870  -5.899   0.000  1.00  0.00     0.167 HD
HETATM   10  C   UNL     1       8.169  -3.650   0.000  1.00  0.00     0.168 C 
HETATM   11  O   UNL     1       8.169  -2.150   0.000  1.00  0.00    -0.176 OA
HETATM   12  C   UNL     1       9.468  -4.399   0.000  1.00  0.00     0.081 C 
ENDBRANCH   5   8
BRANCH   3  13
HETATM   13 AS   UNL     1       4.272   0.101   0.000  1.00  0.00     0.000 As
HETATM   14  O   UNL     1       2.772   0.101   0.000  1.00  0.00     0.000 OA
HETATM   15  O   UNL     1       4.272   1.601   0.000  1.00  0.00     0.000 OA
HETATM   16  O   UNL     1       5.772   0.101   0.000  1.00  0.00     0.000 OA
ENDBRANCH   3  13
TORSDOF 2
