REMARK  1 active torsions:
REMARK  status: ('A' for Active; 'I' for Inactive)
REMARK    1  A    between atoms: C_4  and  C_17 
ROOT
HETATM    1  C   UNL     1      -9.294  -1.500   0.000  1.00  0.00     0.132 A 
HETATM    2  O   UNL     1      -6.696   3.000   0.000  1.00  0.00    -0.164 OA
HETATM    3  O   UNL     1      -5.397   0.750   0.000  1.00  0.00    -0.301 OA
HETATM    4  C   UNL     1      -9.294   1.500   0.000  1.00  0.00     0.115 A 
HETATM    5  C   UNL     1     -10.593   0.750   0.000  1.00  0.00     0.110 A 
HETATM    6  C   UNL     1      -7.995   0.750   0.000  1.00  0.00     0.053 A 
HETATM    7  C   UNL     1      -6.696   1.500   0.000  1.00  0.00     0.227 A 
HETATM    8  C   UNL     1     -10.593  -0.750   0.000  1.00  0.00     0.136 A 
HETATM    9  C   UNL     1      -7.995  -0.750   0.000  1.00  0.00     0.140 A 
HETATM   10  C   UNL     1      -6.696  -1.500   0.000  1.00  0.00     0.070 A 
HETATM   11  C   UNL     1      -5.397  -0.750   0.000  1.00  0.00     0.181 A 
HETATM   12  O   UNL     1     -11.892  -1.500   0.000  1.00  0.00    -0.193 OA
HETATM   13  O   UNL     1      -9.294   3.000   0.000  1.00  0.00    -0.195 OA
HETATM   14  O   UNL     1      -9.294  -3.000   0.000  1.00  0.00    -0.194 OA
HETATM   15  N   UNL     1      -6.696  -3.000   0.000  1.00  0.00    -0.237 NA
HETATM   16  C   UNL     1      -7.660  -4.149   0.000  1.00  0.00     0.295 A 
HETATM   17  O   UNL     1      -9.137  -3.889   0.000  1.00  0.00    -0.181 OA
HETATM   18  C   UNL     1      -4.884  -2.160   0.000  1.00  0.00     0.098 A 
HETATM   19 CL   UNL     1      -3.407  -2.420   0.000  1.00  0.00    -0.154 Cl
HETATM   20 CL   UNL     1      -5.848  -3.309   0.000  1.00  0.00    -0.107 Cl
HETATM   21  C   UNL     1      -3.920  -0.490   0.000  1.00  0.00     0.123 A 
ENDROOT
BRANCH  16  22
HETATM   22  C   UNL     1      -7.147  -5.559   0.000  1.00  0.00     0.395 C 
HETATM   23  N   UNL     1      -7.408  -7.036   0.000  1.00  0.00     0.612 N 
HETATM   24  C   UNL     1      -5.670  -5.819   0.000  1.00  0.00     0.037 C 
ENDBRANCH  16  22
TORSDOF 1
