REMARK  3 active torsions:
REMARK  status: ('A' for Active; 'I' for Inactive)
REMARK    1  A    between atoms: C_9  and  C_10 
REMARK    2  A    between atoms: C_13  and  N_22 
REMARK    3  A    between atoms: C_15  and  N_22 
ROOT
HETATM    1  C   UNL     1       6.874   3.164   0.000  1.00  0.00     0.198 A 
HETATM    2  N   UNL     1       7.756   4.377   0.000  1.00  0.00    -0.120 NA
HETATM    3  O   UNL     1       7.756   1.950   0.000  1.00  0.00    -0.254 OA
HETATM    4  C   UNL     1       9.182   2.414   0.000  1.00  0.00     0.294 A 
HETATM    5  N   UNL     1       9.182   3.914   0.000  1.00  0.00    -0.101 NA
ENDROOT
BRANCH   1   6
HETATM    6  C   UNL     1       5.374   3.164   0.000  1.00  0.00     0.006 A 
HETATM    7  C   UNL     1       4.624   1.865   0.000  1.00  0.00     0.078 A 
HETATM    8  C   UNL     1       3.124   1.865   0.000  1.00  0.00     0.097 A 
HETATM    9  C   UNL     1       2.374   3.164   0.000  1.00  0.00     0.093 A 
HETATM   10  O   UNL     1       2.120   0.750   0.000  1.00  0.00    -0.304 OA
HETATM   11  O   UNL     1       0.907   2.852   0.000  1.00  0.00    -0.304 OA
HETATM   12  C   UNL     1       3.124   4.463   0.000  1.00  0.00     0.057 A 
HETATM   13  C   UNL     1       0.750   1.360   0.000  1.00  0.00     0.303 A 
HETATM   14  C   UNL     1       4.624   4.463   0.000  1.00  0.00     0.033 A 
ENDBRANCH   1   6
BRANCH   4  15
HETATM   15  N   UNL     1      10.396   1.532   0.000  1.00  0.00    -0.213 NA
BRANCH  15  16
HETATM   16  C   UNL     1      11.766   2.142   0.000  1.00  0.00     0.041 A 
HETATM   17  C   UNL     1      11.923   3.634   0.000  1.00  0.00     0.047 A 
HETATM   18  C   UNL     1      13.293   4.244   0.000  1.00  0.00     0.040 A 
HETATM   19  C   UNL     1      14.507   3.362   0.000  1.00  0.00     0.014 A 
HETATM   20  C   UNL     1      14.350   1.871   0.000  1.00  0.00     0.040 A 
HETATM   21 CL   UNL     1      15.877   3.973   0.000  1.00  0.00    -0.092 Cl
HETATM   22  C   UNL     1      12.980   1.260   0.000  1.00  0.00     0.047 A 
ENDBRANCH  15  16
ENDBRANCH   4  15
TORSDOF 3
