REMARK  0 active torsions:
REMARK  status: ('A' for Active; 'I' for Inactive)
ROOT
HETATM    1  C   UNL     1       0.750   4.140   0.000  1.00  0.00     0.080 A 
HETATM    2  C   UNL     1       0.750   2.640   0.000  1.00  0.00     0.082 A 
HETATM    3  C   UNL     1       2.177   4.604   0.000  1.00  0.00     0.160 A 
HETATM    4  C   UNL     1       2.177   2.177   0.000  1.00  0.00     0.176 A 
HETATM    5  O   UNL     1       2.640   0.750   0.000  1.00  0.00    -0.175 OA
HETATM    6  O   UNL     1       2.640   6.030   0.000  1.00  0.00    -0.237 OA
HETATM    7  N   UNL     1       3.058   3.390   0.000  1.00  0.00    -0.276 N 
HETATM    8  C   UNL     1       4.558   3.390   0.000  1.00  0.00     0.053 A 
HETATM    9  C   UNL     1       5.308   2.091   0.000  1.00  0.00     0.050 A 
HETATM   10  C   UNL     1       5.308   4.689   0.000  1.00  0.00     0.065 A 
HETATM   11 CL   UNL     1       4.558   5.988   0.000  1.00  0.00    -0.020 Cl
HETATM   12  C   UNL     1       6.808   2.091   0.000  1.00  0.00     0.035 A 
HETATM   13  C   UNL     1       6.808   4.689   0.000  1.00  0.00     0.068 A 
HETATM   14  C   UNL     1       7.558   3.390   0.000  1.00  0.00    -0.008 A 
HETATM   15  I   UNL     1       9.058   3.390   0.000  1.00  0.00    -0.052 I 
ENDROOT
TORSDOF 0
