REMARK  2 active torsions:
REMARK  status: ('A' for Active; 'I' for Inactive)
REMARK    1  A    between atoms: C_6  and  C_7 
REMARK    2  A    between atoms: C_12  and  O_13 
ROOT
HETATM    1  C   UNL     1       5.250   5.946   0.000  1.00  0.00     0.095 A 
HETATM    2  C   UNL     1       6.000   4.647   0.000  1.00  0.00    -0.001 A 
HETATM    3  N   UNL     1       6.000   7.245   0.000  1.00  0.00    -0.149 NA
HETATM    4  N   UNL     1       7.500   7.245   0.000  1.00  0.00    -0.153 NA
HETATM    5  C   UNL     1       7.500   4.647   0.000  1.00  0.00     0.074 A 
HETATM    6  C   UNL     1       8.250   5.946   0.000  1.00  0.00     0.077 A 
HETATM    7  C   UNL     1       3.750   5.946   0.000  1.00  0.00    -0.007 A 
HETATM    8  C   UNL     1       3.000   4.647   0.000  1.00  0.00    -0.029 A 
HETATM    9  C   UNL     1       1.500   4.647   0.000  1.00  0.00     0.026 A 
HETATM   10  C   UNL     1       0.750   5.946   0.000  1.00  0.00     0.005 A 
HETATM   11  C   UNL     1       1.500   7.245   0.000  1.00  0.00     0.005 A 
HETATM   12  C   UNL     1       3.000   7.245   0.000  1.00  0.00     0.028 A 
HETATM   13  C   UNL     1       5.250   3.348   0.000  1.00  0.00    -0.029 A 
HETATM   14  C   UNL     1       6.000   2.049   0.000  1.00  0.00     0.026 A 
HETATM   15  C   UNL     1       5.250   0.750   0.000  1.00  0.00     0.005 A 
HETATM   16  C   UNL     1       3.750   0.750   0.000  1.00  0.00     0.005 A 
HETATM   17  C   UNL     1       3.000   2.049   0.000  1.00  0.00     0.026 A 
HETATM   18  C   UNL     1       3.750   3.348   0.000  1.00  0.00    -0.031 A 
ENDROOT
BRANCH   6  19
HETATM   19  C   UNL     1       9.750   5.946   0.000  1.00  0.00    -0.028 A 
HETATM   20  C   UNL     1      10.500   7.245   0.000  1.00  0.00     0.026 A 
HETATM   21  C   UNL     1      12.000   7.245   0.000  1.00  0.00     0.034 A 
HETATM   22  C   UNL     1      12.750   5.946   0.000  1.00  0.00     0.116 A 
HETATM   23  C   UNL     1      12.000   4.647   0.000  1.00  0.00     0.034 A 
HETATM   24  C   UNL     1      10.500   4.647   0.000  1.00  0.00     0.026 A 
BRANCH  22  25
HETATM   25  O   UNL     1      14.250   5.946   0.000  1.00  0.00    -0.354 OA
HETATM   26  C   UNL     1      15.000   7.245   0.000  1.00  0.00     0.174 C 
ENDBRANCH  22  25
ENDBRANCH   6  19
TORSDOF 2
