REMARK  6 active torsions:
REMARK  status: ('A' for Active; 'I' for Inactive)
REMARK    1  A    between atoms: O_1  and  C_2 
REMARK    2  A    between atoms: O_1  and  C_15 
REMARK    3  A    between atoms: C_7  and  N_19 
REMARK       I    between atoms: C_8  and  N_19 
REMARK       I    between atoms: C_8  and  N_20 
REMARK    4  A    between atoms: C_10  and  N_20 
REMARK    5  A    between atoms: C_15  and  C_16 
REMARK    6  A    between atoms: C_16  and  C_17 
ROOT
HETATM    1  C   UNL     1      -3.814  -1.113   0.000  1.00  0.00     0.116 A 
HETATM    2  C   UNL     1      -2.780  -0.026   0.000  1.00  0.00     0.036 A 
HETATM    3  C   UNL     1      -3.390  -2.552   0.000  1.00  0.00     0.036 A 
HETATM    4  C   UNL     1      -1.322  -0.379   0.000  1.00  0.00     0.044 A 
HETATM    5  C   UNL     1      -1.932  -2.904   0.000  1.00  0.00     0.044 A 
HETATM    6  C   UNL     1      -0.898  -1.818   0.000  1.00  0.00     0.041 A 
ENDROOT
BRANCH   6   7
HETATM    7  N   UNL     1       0.560  -2.170   0.000  1.00  0.00    -0.212 NA
HETATM    8  C   UNL     1       1.594  -1.084   0.000  1.00  0.00     0.302 C 
HETATM    9  O   UNL     1       1.170   0.355   0.000  1.00  0.00    -0.147 OA
HETATM   10  N   UNL     1       3.052  -1.436   0.000  1.00  0.00    -0.177 NA
BRANCH  10  11
HETATM   11  C   UNL     1       4.086  -0.350   0.000  1.00  0.00     0.208 A 
HETATM   12  N   UNL     1       3.815   1.126   0.000  1.00  0.00    -0.152 NA
HETATM   13  N   UNL     1       5.135   1.839   0.000  1.00  0.00    -0.088 NA
HETATM   14  C   UNL     1       6.221   0.805   0.000  1.00  0.00     0.152 A 
HETATM   15  S   UNL     1       5.573  -0.548   0.000  1.00  0.00    -0.055 SA
HETATM   16  C   UNL     1       7.696   1.076   0.000  1.00  0.00     0.034 C 
ENDBRANCH  10  11
ENDBRANCH   6   7
BRANCH   1  17
HETATM   17  O   UNL     1      -5.272  -0.760   0.000  1.00  0.00    -0.357 OA
BRANCH  17  18
HETATM   18  C   UNL     1      -5.696   0.678   0.000  1.00  0.00     0.142 C 
BRANCH  18  19
HETATM   19  C   UNL     1      -4.662   1.765   0.000  1.00  0.00     0.032 C 
BRANCH  19  20
HETATM   20  C   UNL     1      -5.085   3.204   0.000  1.00  0.00     0.003 C 
HETATM   21  C   UNL     1      -4.051   4.290   0.000  1.00  0.00     0.000 C 
ENDBRANCH  19  20
ENDBRANCH  18  19
ENDBRANCH  17  18
ENDBRANCH   1  17
TORSDOF 6
