REMARK  3 active torsions:
REMARK  status: ('A' for Active; 'I' for Inactive)
REMARK    1  A    between atoms: C_2  and  C_17 
REMARK    2  A    between atoms: C_7  and  N_24 
REMARK    3  A    between atoms: C_22  and  N_24 
ROOT
HETATM    1  C   UNL     1      -2.324   3.475   0.000  1.00  0.00     0.108 A 
HETATM    2  C   UNL     1      -2.324   1.976   0.000  1.00  0.00    -0.003 A 
HETATM    3  C   UNL     1      -3.623   4.226   0.000  1.00  0.00     0.080 A 
HETATM    4  C   UNL     1      -4.922   3.475   0.000  1.00  0.00     0.006 A 
HETATM    5  C   UNL     1      -3.623   1.226   0.000  1.00  0.00     0.073 A 
HETATM    6  C   UNL     1      -4.922   1.976   0.000  1.00  0.00     0.062 A 
HETATM    7  O   UNL     1      -1.024   4.226   0.000  1.00  0.00    -0.195 OA
HETATM    8  N   UNL     1      -6.221   1.226   0.000  1.00  0.00    -0.210 NA
HETATM    9  C   UNL     1      -7.520   1.976   0.000  1.00  0.00     0.270 A 
HETATM   10  O   UNL     1      -7.520   3.475   0.000  1.00  0.00    -0.296 OA
HETATM   11  C   UNL     1      -6.221   4.226   0.000  1.00  0.00     0.176 A 
ENDROOT
BRANCH   9  12
HETATM   12  N   UNL     1      -8.819   1.226   0.000  1.00  0.00    -0.210 NA
BRANCH  12  13
HETATM   13  C   UNL     1      -8.819  -0.275   0.000  1.00  0.00     0.058 A 
HETATM   14  C   UNL     1      -7.520  -1.024   0.000  1.00  0.00     0.046 A 
HETATM   15  C   UNL     1      -7.520  -2.525   0.000  1.00  0.00     0.011 A 
HETATM   16  C   UNL     1      -8.819  -3.275   0.000  1.00  0.00     0.022 A 
HETATM   17  C   UNL     1     -10.118  -2.525   0.000  1.00  0.00    -0.047 A 
HETATM   18  C   UNL     1     -10.118  -1.024   0.000  1.00  0.00    -0.016 A 
HETATM   19  C   UNL     1     -11.417  -3.275   0.000  1.00  0.00     0.022 A 
HETATM   20  C   UNL     1     -11.417  -0.275   0.000  1.00  0.00     0.027 A 
HETATM   21  C   UNL     1     -12.716  -1.024   0.000  1.00  0.00     0.005 A 
HETATM   22  C   UNL     1     -12.716  -2.525   0.000  1.00  0.00     0.005 A 
ENDBRANCH  12  13
ENDBRANCH   9  12
BRANCH   2  23
HETATM   23  C   UNL     1      -1.024   1.226   0.000  1.00  0.00    -0.045 C 
HETATM   24  C   UNL     1      -1.024  -0.275   0.000  1.00  0.00     0.026 C 
HETATM   25  C   UNL     1       0.275   1.976   0.000  1.00  0.00     0.026 C 
ENDBRANCH   2  23
TORSDOF 3
