REMARK  4 active torsions:
REMARK  status: ('A' for Active; 'I' for Inactive)
REMARK    1  A    between atoms: C_6  and  C_7 
REMARK    2  A    between atoms: C_7  and  C_9 
REMARK    3  A    between atoms: C_14  and  C_16 
REMARK    4  A    between atoms: C_16  and  C_17 
ROOT
HETATM    1  C   UNL     1       5.250   5.946   0.000  1.00  0.00    -0.019 A 
HETATM    2  C   UNL     1       6.000   4.647   0.000  1.00  0.00     0.029 A 
HETATM    3  C   UNL     1       6.000   7.245   0.000  1.00  0.00     0.029 A 
HETATM    4  C   UNL     1       7.500   7.245   0.000  1.00  0.00     0.029 A 
HETATM    5  C   UNL     1       7.500   4.647   0.000  1.00  0.00     0.029 A 
HETATM    6  C   UNL     1       8.250   5.946   0.000  1.00  0.00    -0.019 A 
ENDROOT
BRANCH   1   7
HETATM    7  C   UNL     1       3.750   5.946   0.000  1.00  0.00     0.115 C 
HETATM    8  O   UNL     1       3.000   7.245   0.000  1.00  0.00    -0.192 OA
BRANCH   7   9
HETATM    9  C   UNL     1       3.000   4.647   0.000  1.00  0.00    -0.019 A 
HETATM   10  C   UNL     1       1.500   4.647   0.000  1.00  0.00     0.027 A 
HETATM   11  C   UNL     1       0.750   3.348   0.000  1.00  0.00     0.037 A 
HETATM   12  C   UNL     1       1.500   2.049   0.000  1.00  0.00     0.153 A 
HETATM   13  C   UNL     1       3.000   2.049   0.000  1.00  0.00     0.037 A 
HETATM   14  O   UNL     1       0.750   0.750   0.000  1.00  0.00    -0.223 OA
HETATM   15  C   UNL     1       3.750   3.348   0.000  1.00  0.00     0.027 A 
ENDBRANCH   7   9
ENDBRANCH   1   7
BRANCH   6  16
HETATM   16  C   UNL     1       9.750   5.946   0.000  1.00  0.00     0.115 C 
HETATM   17  O   UNL     1      10.500   7.245   0.000  1.00  0.00    -0.192 OA
BRANCH  16  18
HETATM   18  C   UNL     1      10.500   4.647   0.000  1.00  0.00    -0.019 A 
HETATM   19  C   UNL     1      12.000   4.647   0.000  1.00  0.00     0.027 A 
HETATM   20  C   UNL     1      12.750   3.348   0.000  1.00  0.00     0.037 A 
HETATM   21  C   UNL     1      12.000   2.049   0.000  1.00  0.00     0.153 A 
HETATM   22  C   UNL     1      10.500   2.049   0.000  1.00  0.00     0.037 A 
HETATM   23  O   UNL     1      12.750   0.750   0.000  1.00  0.00    -0.223 OA
HETATM   24  C   UNL     1       9.750   3.348   0.000  1.00  0.00     0.027 A 
ENDBRANCH  16  18
ENDBRANCH   6  16
TORSDOF 4
