REMARK  7 active torsions:
REMARK  status: ('A' for Active; 'I' for Inactive)
REMARK    1  A    between atoms: C_6  and  S_7 
REMARK    2  A    between atoms: S_7  and  C_15 
REMARK    3  A    between atoms: S_8  and  C_9 
REMARK    4  A    between atoms: S_8  and  C_18 
REMARK    5  A    between atoms: C_15  and  C_16 
REMARK    6  A    between atoms: C_16  and  C_17 
REMARK    7  A    between atoms: C_17  and  C_18 
ROOT
HETATM    1  C   UNL     1       1.399  -6.870   0.000  1.00  0.00     0.013 C 
ENDROOT
BRANCH   1   2
HETATM    2  C   UNL     1       2.150  -8.169   0.000  1.00  0.00     0.063 C 
BRANCH   2   3
HETATM    3  S   UNL     1       1.399  -9.468   0.000  1.00  0.00    -0.100 SA
BRANCH   3   4
HETATM    4  C   UNL     1       2.150 -10.767   0.000  1.00  0.00     0.079 A 
HETATM    5  N   UNL     1       1.400 -12.066   0.000  1.00  0.00    -0.269 NA
HETATM    6  C   UNL     1       2.150 -13.365   0.000  1.00  0.00     0.126 A 
HETATM    7  C   UNL     1       3.650 -13.365   0.000  1.00  0.00     0.027 A 
HETATM    8  C   UNL     1       4.400 -12.066   0.000  1.00  0.00     0.009 A 
HETATM    9  C   UNL     1       3.650 -10.767   0.000  1.00  0.00     0.052 A 
ENDBRANCH   3   4
ENDBRANCH   2   3
ENDBRANCH   1   2
BRANCH   1  10
HETATM   10  C   UNL     1       2.150  -5.571   0.000  1.00  0.00     0.013 C 
BRANCH  10  11
HETATM   11  C   UNL     1       1.399  -4.272   0.000  1.00  0.00     0.063 C 
BRANCH  11  12
HETATM   12  S   UNL     1      -0.078  -4.533   0.000  1.00  0.00    -0.100 SA
BRANCH  12  13
HETATM   13  C   UNL     1      -1.042  -3.384   0.000  1.00  0.00     0.079 A 
HETATM   14  C   UNL     1      -0.529  -1.974   0.000  1.00  0.00     0.052 A 
HETATM   15  C   UNL     1      -1.493  -0.825   0.000  1.00  0.00     0.009 A 
HETATM   16  C   UNL     1      -2.970  -1.085   0.000  1.00  0.00     0.027 A 
HETATM   17  C   UNL     1      -3.483  -2.495   0.000  1.00  0.00     0.126 A 
HETATM   18  N   UNL     1      -2.519  -3.644   0.000  1.00  0.00    -0.269 NA
ENDBRANCH  12  13
ENDBRANCH  11  12
ENDBRANCH  10  11
ENDBRANCH   1  10
TORSDOF 7
