REMARK  2 active torsions:
REMARK  status: ('A' for Active; 'I' for Inactive)
REMARK    1  A    between atoms: C_9  and  N_10 
REMARK    2  A    between atoms: C_12  and  S_13 
ROOT
HETATM    1  C   UNL     1       0.750  -5.422   0.000  1.00  0.00     0.007 A 
HETATM    2  C   UNL     1       0.750  -6.922   0.000  1.00  0.00     0.005 A 
HETATM    3  C   UNL     1       2.049  -4.672   0.000  1.00  0.00     0.044 A 
HETATM    4  C   UNL     1       2.049  -7.672   0.000  1.00  0.00     0.029 A 
HETATM    5  C   UNL     1       3.348  -5.422   0.000  1.00  0.00     0.042 A 
HETATM    6  C   UNL     1       3.348  -6.922   0.000  1.00  0.00     0.003 A 
HETATM    7  N   UNL     1       4.775  -4.958   0.000  1.00  0.00    -0.275 N 
HETATM    8  C   UNL     1       4.775  -7.385   0.000  1.00  0.00     0.064 A 
HETATM    9  S   UNL     1       5.656  -6.172   0.000  1.00  0.00    -0.002 SA
ENDROOT
BRANCH   7  10
HETATM   10  C   UNL     1       5.238  -3.531   0.000  1.00  0.00     0.345 A 
HETATM   11  C   UNL     1       3.753  -3.323   0.000  1.00  0.00     0.059 A 
HETATM   12  C   UNL     1       3.191  -1.932   0.000  1.00  0.00     0.004 A 
HETATM   13  C   UNL     1       4.114  -0.750   0.000  1.00  0.00     0.000 A 
HETATM   14  C   UNL     1       5.600  -0.959   0.000  1.00  0.00     0.004 A 
HETATM   15  C   UNL     1       6.162  -2.349   0.000  1.00  0.00     0.059 A 
HETATM   16  N   UNL     1       6.563  -4.236   0.000  1.00  0.00     0.637 N 
ENDBRANCH   7  10
BRANCH   8  17
HETATM   17  S   UNL     1       5.238  -8.812   0.000  1.00  0.00    -0.134 SA
HETATM   18  H   UNL     1       6.705  -9.124   0.000  1.00  0.00     0.107 HD
ENDBRANCH   8  17
TORSDOF 2
