REMARK  4 active torsions:
REMARK  status: ('A' for Active; 'I' for Inactive)
REMARK    1  A    between atoms: S_2  and  C_4 
REMARK    2  A    between atoms: C_6  and  N_12 
REMARK    3  A    between atoms: C_8  and  N_12 
REMARK    4  A    between atoms: C_10  and  N_15 
ROOT
HETATM    1  C   UNL     1      -6.240  -1.679   0.000  1.00  0.00     0.298 A 
HETATM    2  O   UNL     1      -5.490  -0.380   0.000  1.00  0.00    -0.149 OA
HETATM    3  C   UNL     1      -3.240  -1.679   0.000  1.00  0.00     0.236 A 
HETATM    4  O   UNL     1      -3.990  -0.380   0.000  1.00  0.00    -0.168 OA
HETATM    5  N   UNL     1      -5.490  -2.978   0.000  1.00  0.00    -0.221 NA
HETATM    6  C   UNL     1      -3.990  -2.978   0.000  1.00  0.00     0.205 A 
ENDROOT
BRANCH   1   7
HETATM    7  N   UNL     1      -7.740  -1.679   0.000  1.00  0.00    -0.177 NA
BRANCH   7   8
HETATM    8  C   UNL     1      -8.490  -0.380   0.000  1.00  0.00     0.209 A 
HETATM    9  S   UNL     1      -9.982  -0.223   0.000  1.00  0.00    -0.045 SA
HETATM   10  C   UNL     1     -10.294   1.244   0.000  1.00  0.00     0.196 A 
HETATM   11  N   UNL     1      -8.995   1.994   0.000  1.00  0.00    -0.077 NA
HETATM   12  N   UNL     1      -7.880   0.990   0.000  1.00  0.00    -0.152 NA
BRANCH  10  13
HETATM   13  S   UNL     1     -11.664   1.854   0.000  1.00  0.00    -0.138 SA
HETATM   14  H   UNL     1     -11.821   3.346   0.000  1.00  0.00     0.104 HD
ENDBRANCH  10  13
ENDBRANCH   7   8
ENDBRANCH   1   7
BRANCH   3  15
HETATM   15  N   UNL     1      -1.740  -1.679   0.000  1.00  0.00    -0.102 NA
HETATM   16  N   UNL     1      -0.990  -0.380   0.000  1.00  0.00    -0.021 N 
ENDBRANCH   3  15
TORSDOF 4
