REMARK  0 active torsions:
REMARK  status: ('A' for Active; 'I' for Inactive)
ROOT
HETATM    1  C   UNL     1       0.750   7.500   0.000  1.00  0.00     0.005 A 
HETATM    2  C   UNL     1       0.750   6.000   0.000  1.00  0.00     0.026 A 
HETATM    3  C   UNL     1       0.750   3.000   0.000  1.00  0.00     0.026 A 
HETATM    4  C   UNL     1       0.750   1.500   0.000  1.00  0.00     0.005 A 
HETATM    5  C   UNL     1       2.049   5.250   0.000  1.00  0.00    -0.029 A 
HETATM    6  C   UNL     1       2.049   3.750   0.000  1.00  0.00    -0.029 A 
HETATM    7  C   UNL     1       2.049   8.250   0.000  1.00  0.00     0.005 A 
HETATM    8  C   UNL     1       2.049   0.750   0.000  1.00  0.00     0.005 A 
HETATM    9  C   UNL     1       3.348   6.000   0.000  1.00  0.00    -0.006 A 
HETATM   10  C   UNL     1       3.348   7.500   0.000  1.00  0.00     0.028 A 
HETATM   11  C   UNL     1       3.348   3.000   0.000  1.00  0.00    -0.007 A 
HETATM   12  C   UNL     1       3.348   1.500   0.000  1.00  0.00     0.028 A 
HETATM   13  C   UNL     1       4.647   3.750   0.000  1.00  0.00     0.098 A 
HETATM   14  C   UNL     1       4.647   5.250   0.000  1.00  0.00     0.114 A 
HETATM   15  N   UNL     1       5.946   3.000   0.000  1.00  0.00    -0.220 NA
HETATM   16  N   UNL     1       5.946   6.000   0.000  1.00  0.00    -0.163 NA
HETATM   17  N   UNL     1       7.245   5.250   0.000  1.00  0.00    -0.212 N 
HETATM   18  C   UNL     1       7.245   3.750   0.000  1.00  0.00     0.191 A 
HETATM   19  S   UNL     1       8.544   3.000   0.000  1.00  0.00    -0.071 SA
HETATM   20  C   UNL     1       9.843   3.750   0.000  1.00  0.00     0.088 A 
HETATM   21  C   UNL     1       9.843   5.250   0.000  1.00  0.00    -0.019 A 
HETATM   22  C   UNL     1       8.544   6.000   0.000  1.00  0.00     0.056 A 
HETATM   23  C   UNL     1       8.544   7.500   0.000  1.00  0.00     0.045 A 
HETATM   24  C   UNL     1       9.843   8.250   0.000  1.00  0.00     0.007 A 
HETATM   25  C   UNL     1      11.142   7.500   0.000  1.00  0.00     0.005 A 
HETATM   26  C   UNL     1      11.142   6.000   0.000  1.00  0.00     0.024 A 
ENDROOT
TORSDOF 0
