REMARK  3 active torsions:
REMARK  status: ('A' for Active; 'I' for Inactive)
REMARK    1  A    between atoms: O_1  and  C_3 
REMARK    2  A    between atoms: C_3  and  C_4 
REMARK    3  A    between atoms: C_14  and  O_17 
ROOT
HETATM    1  C   UNL     1       3.540   5.575   0.000  1.00  0.00     0.069 A 
HETATM    2  C   UNL     1       3.874   4.113   0.000  1.00  0.00     0.142 A 
HETATM    3  C   UNL     1       4.476   6.748   0.000  1.00  0.00     0.019 A 
HETATM    4  N   UNL     1       5.226   3.462   0.000  1.00  0.00    -0.011 N 
HETATM    5  H   UNL     1       5.877   2.111   0.000  1.00  0.00     0.289 HD
HETATM    6  C   UNL     1       5.976   6.748   0.000  1.00  0.00     0.053 A 
HETATM    7  C   UNL     1       5.559   4.924   0.000  1.00  0.00     0.231 A 
HETATM    8  C   UNL     1       6.911   5.575   0.000  1.00  0.00     0.147 A 
HETATM    9  O   UNL     1       4.429   9.622   0.000  1.00  0.00    -0.175 OA
HETATM   10  O   UNL     1       9.394   6.341   0.000  1.00  0.00    -0.186 OA
HETATM   11  C   UNL     1       8.373   5.241   0.000  1.00  0.00     0.278 A 
HETATM   12  C   UNL     1       5.916   9.420   0.000  1.00  0.00     0.176 A 
HETATM   13  N   UNL     1       6.627   8.099   0.000  1.00  0.00    -0.275 N 
HETATM   14  C   UNL     1       6.952  10.505   0.000  1.00  0.00     0.082 A 
HETATM   15  C   UNL     1       8.102   8.367   0.000  1.00  0.00     0.176 A 
HETATM   16  O   UNL     1       9.187   7.331   0.000  1.00  0.00    -0.179 OA
HETATM   17  C   UNL     1       8.304   9.854   0.000  1.00  0.00     0.082 A 
HETATM   18  C   UNL     1       2.701   3.178   0.000  1.00  0.00     0.058 C 
HETATM   19  C   UNL     1       6.732   3.989   0.000  1.00  0.00     0.231 A 
ENDROOT
BRANCH   1  20
HETATM   20  C   UNL     1       2.078   5.909   0.000  1.00  0.00     0.230 C 
HETATM   21  O   UNL     1       1.636   7.342   0.000  1.00  0.00    -0.163 OA
BRANCH  20  22
HETATM   22  O   UNL     1       1.058   4.809   0.000  1.00  0.00    -0.306 OA
HETATM   23  C   UNL     1      -0.405   5.143   0.000  1.00  0.00     0.184 C 
ENDBRANCH  20  22
ENDBRANCH   1  20
BRANCH  11  24
HETATM   24  O   UNL     1       8.815   3.808   0.000  1.00  0.00    -0.326 OA
HETATM   25  C   UNL     1      10.278   3.474   0.000  1.00  0.00     0.177 C 
ENDBRANCH  11  24
TORSDOF 3
