REMARK  4 active torsions:
REMARK  status: ('A' for Active; 'I' for Inactive)
REMARK    1  A    between atoms: N_11  and  C_28 
REMARK    2  A    between atoms: C_12  and  C_13 
REMARK    3  A    between atoms: C_19  and  C_29 
REMARK    4  A    between atoms: C_28  and  C_29 
ROOT
HETATM    1  C   UNL     1     -10.017  -6.650   0.000  1.00  0.00     0.005 A 
HETATM    2  C   UNL     1     -10.017  -8.150   0.000  1.00  0.00     0.007 A 
HETATM    3  C   UNL     1      -8.718  -5.899   0.000  1.00  0.00     0.031 A 
HETATM    4  C   UNL     1      -8.718  -8.900   0.000  1.00  0.00     0.043 A 
HETATM    5  C   UNL     1      -7.419  -6.649   0.000  1.00  0.00     0.031 A 
HETATM    6  C   UNL     1      -7.419  -8.149   0.000  1.00  0.00     0.034 A 
HETATM    7  C   UNL     1      -6.120  -5.899   0.000  1.00  0.00     0.192 A 
HETATM    8  O   UNL     1      -6.120  -4.399   0.000  1.00  0.00    -0.171 OA
HETATM    9  N   UNL     1      -6.120  -8.899   0.000  1.00  0.00    -0.344 N 
HETATM   10  H   UNL     1      -6.120 -10.399   0.000  1.00  0.00     0.167 HD
HETATM   11  N   UNL     1      -4.821  -6.649   0.000  1.00  0.00    -0.294 N 
HETATM   12  C   UNL     1      -4.821  -8.149   0.000  1.00  0.00     0.121 A 
ENDROOT
BRANCH  12  13
HETATM   13  C   UNL     1      -3.522  -8.899   0.000  1.00  0.00     0.041 A 
HETATM   14  C   UNL     1      -2.223  -8.149   0.000  1.00  0.00     0.065 A 
HETATM   15  C   UNL     1      -0.924  -8.899   0.000  1.00  0.00     0.023 A 
HETATM   16 CL   UNL     1       0.375  -8.149   0.000  1.00  0.00    -0.091 Cl
HETATM   17  C   UNL     1      -0.924 -10.399   0.000  1.00  0.00     0.074 A 
HETATM   18  C   UNL     1      -2.223 -11.149   0.000  1.00  0.00     0.066 A 
HETATM   19  C   UNL     1      -3.522 -10.399   0.000  1.00  0.00     0.137 A 
HETATM   20 CL   UNL     1      -2.223 -12.649   0.000  1.00  0.00    -0.085 Cl
HETATM   21  O   UNL     1      -4.821 -11.149   0.000  1.00  0.00    -0.190 OA
ENDBRANCH  12  13
BRANCH  11  22
HETATM   22  C   UNL     1      -3.522  -5.899   0.000  1.00  0.00     0.115 C 
BRANCH  22  23
HETATM   23  C   UNL     1      -3.522  -4.399   0.000  1.00  0.00     0.066 C 
BRANCH  23  24
HETATM   24  C   UNL     1      -2.223  -3.650   0.000  1.00  0.00     0.034 A 
HETATM   25  C   UNL     1      -2.223  -2.150   0.000  1.00  0.00     0.041 A 
HETATM   26  C   UNL     1      -0.924  -1.399   0.000  1.00  0.00     0.008 A 
HETATM   27  C   UNL     1       0.375  -2.150   0.000  1.00  0.00     0.027 A 
HETATM   28  C   UNL     1       0.375  -3.650   0.000  1.00  0.00     0.125 A 
HETATM   29  N   UNL     1      -0.924  -4.399   0.000  1.00  0.00    -0.279 NA
ENDBRANCH  23  24
ENDBRANCH  22  23
ENDBRANCH  11  22
TORSDOF 4
