REMARK  2 active torsions:
REMARK  status: ('A' for Active; 'I' for Inactive)
REMARK    1  A    between atoms: C_12  and  N_21 
REMARK    2  A    between atoms: C_14  and  N_21 
ROOT
HETATM    1 CL   UNL     1       0.750   5.250   0.000  1.00  0.00    -0.060 Cl
HETATM    2  C   UNL     1       2.049   4.500   0.000  1.00  0.00     0.143 A 
HETATM    3  O   UNL     1       2.049   3.000   0.000  1.00  0.00    -0.276 OA
HETATM    4  C   UNL     1       3.348   5.250   0.000  1.00  0.00     0.115 A 
HETATM    5  C   UNL     1       3.348   2.250   0.000  1.00  0.00     0.238 A 
HETATM    6  O   UNL     1       3.348   0.750   0.000  1.00  0.00    -0.163 OA
HETATM    7  C   UNL     1       4.647   4.500   0.000  1.00  0.00     0.096 A 
HETATM    8  C   UNL     1       4.647   3.000   0.000  1.00  0.00     0.112 A 
HETATM    9  C   UNL     1       5.946   2.250   0.000  1.00  0.00     0.221 A 
HETATM   10  O   UNL     1       5.946   0.750   0.000  1.00  0.00    -0.169 OA
HETATM   11  O   UNL     1       5.946   5.250   0.000  1.00  0.00    -0.278 OA
HETATM   12  C   UNL     1       7.245   4.500   0.000  1.00  0.00     0.276 A 
HETATM   13  N   UNL     1       7.245   3.000   0.000  1.00  0.00    -0.178 NA
ENDROOT
BRANCH  12  14
HETATM   14  N   UNL     1       8.544   5.250   0.000  1.00  0.00    -0.213 NA
BRANCH  14  15
HETATM   15  C   UNL     1       9.843   4.500   0.000  1.00  0.00     0.045 A 
HETATM   16  C   UNL     1      11.142   5.250   0.000  1.00  0.00     0.042 A 
HETATM   17  C   UNL     1      12.441   4.500   0.000  1.00  0.00     0.011 A 
HETATM   18  C   UNL     1      12.441   3.000   0.000  1.00  0.00     0.034 A 
HETATM   19  C   UNL     1      11.142   2.250   0.000  1.00  0.00     0.019 A 
HETATM   20  C   UNL     1       9.843   3.000   0.000  1.00  0.00     0.075 A 
HETATM   21 CL   UNL     1      11.142   0.750   0.000  1.00  0.00    -0.091 Cl
ENDBRANCH  14  15
ENDBRANCH  12  14
TORSDOF 2
