REMARK  1 active torsions:
REMARK  status: ('A' for Active; 'I' for Inactive)
REMARK    1  A    between atoms: N_12  and  C_14 
ROOT
HETATM    1  C   UNL     1      -3.558   4.850   0.000  1.00  0.00     0.001 A 
HETATM    2  C   UNL     1      -2.948   3.479   0.000  1.00  0.00     0.001 A 
HETATM    3  C   UNL     1      -2.868   6.181   0.000  1.00  0.00     0.027 A 
HETATM    4  C   UNL     1      -1.496   3.103   0.000  1.00  0.00     0.011 A 
HETATM    5  C   UNL     1      -1.396   6.472   0.000  1.00  0.00     0.213 A 
HETATM    6  C   UNL     1      -0.296   4.003   0.000  1.00  0.00     0.071 A 
HETATM    7  C   UNL     1      -0.252   5.502   0.000  1.00  0.00     0.315 A 
HETATM    8  N   UNL     1       1.048   4.753   0.000  1.00  0.00    -0.175 NA
HETATM    9  N   UNL     1       0.060   6.970   0.000  1.00  0.00     0.084 N 
HETATM   10  H   UNL     1      -0.945   8.084   0.000  1.00  0.00     0.320 HD
HETATM   11  C   UNL     1       2.162   5.757   0.000  1.00  0.00     0.189 A 
HETATM   12  N   UNL     1       1.551   7.127   0.000  1.00  0.00    -0.152 N 
HETATM   13  S   UNL     1       3.629   5.446   0.000  1.00  0.00    -0.044 SA
ENDROOT
BRANCH  12  14
HETATM   14  C   UNL     1       2.301   8.426   0.000  1.00  0.00     0.046 A 
HETATM   15  C   UNL     1       1.550   9.725   0.000  1.00  0.00     0.041 A 
HETATM   16  C   UNL     1       2.300  11.024   0.000  1.00  0.00     0.006 A 
HETATM   17  C   UNL     1       3.800  11.025   0.000  1.00  0.00     0.001 A 
HETATM   18  C   UNL     1       4.550   9.726   0.000  1.00  0.00     0.006 A 
HETATM   19  C   UNL     1       3.801   8.427   0.000  1.00  0.00     0.041 A 
ENDBRANCH  12  14
TORSDOF 1
