REMARK  3 active torsions:
REMARK  status: ('A' for Active; 'I' for Inactive)
REMARK    1  A    between atoms: C_3  and  C_24 
REMARK    2  A    between atoms: C_11  and  O_22 
REMARK    3  A    between atoms: C_17  and  O_26 
REMARK       I    between atoms: N_28  and  C_29 
ROOT
HETATM    1  C   UNL     1      10.753   2.238   0.000  1.00  0.00     0.163 A 
HETATM    2  O   UNL     1      12.627  -2.200   0.000  1.00  0.00    -0.187 OA
HETATM    3  C   UNL     1       6.168   3.738   0.000  1.00  0.00     0.035 A 
HETATM    4  C   UNL     1       4.869   2.988   0.000  1.00  0.00     0.117 A 
HETATM    5  C   UNL     1       7.467   2.988   0.000  1.00  0.00     0.002 A 
HETATM    6  C   UNL     1       8.640   3.923   0.000  1.00  0.00    -0.003 A 
HETATM    7  C   UNL     1      10.102   3.589   0.000  1.00  0.00    -0.009 A 
HETATM    8  C   UNL     1       4.869   1.488   0.000  1.00  0.00     0.138 A 
HETATM    9  C   UNL     1       7.467   1.488   0.000  1.00  0.00     0.024 A 
HETATM   10  C   UNL     1      10.102   0.886   0.000  1.00  0.00     0.012 A 
HETATM   11  C   UNL     1       6.168   0.738   0.000  1.00  0.00     0.118 A 
HETATM   12  C   UNL     1       8.640   0.552   0.000  1.00  0.00     0.001 A 
HETATM   13  C   UNL     1      11.275  -0.049   0.000  1.00  0.00     0.086 A 
HETATM   14  C   UNL     1       7.989  -0.799   0.000  1.00  0.00     0.002 A 
HETATM   15  C   UNL     1      11.275  -1.549   0.000  1.00  0.00     0.169 A 
HETATM   16  C   UNL     1       8.640  -2.151   0.000  1.00  0.00     0.026 A 
HETATM   17  C   UNL     1      10.102  -2.484   0.000  1.00  0.00     0.121 A 
HETATM   18  O   UNL     1       3.570   3.738   0.000  1.00  0.00    -0.326 OA
HETATM   19  C   UNL     1       2.271   2.988   0.000  1.00  0.00     0.181 A 
HETATM   20  O   UNL     1       3.570   0.738   0.000  1.00  0.00    -0.324 OA
HETATM   21  C   UNL     1       2.271   1.488   0.000  1.00  0.00     0.182 A 
HETATM   22  N   UNL     1      11.926   1.302   0.000  1.00  0.00    -0.311 N 
HETATM   23  C   UNL     1      13.322   1.850   0.000  1.00  0.00     0.172 C 
HETATM   24  O   UNL     1      13.546   3.334   0.000  1.00  0.00    -0.176 OA
HETATM   25  C   UNL     1      14.495   0.915   0.000  1.00  0.00     0.081 C 
ENDROOT
BRANCH  17  26
HETATM   26  O   UNL     1      10.436  -3.947   0.000  1.00  0.00    -0.326 OA
HETATM   27  C   UNL     1      11.870  -4.389   0.000  1.00  0.00     0.181 C 
ENDBRANCH  17  26
BRANCH   3  28
HETATM   28  C   UNL     1       6.168   5.238   0.000  1.00  0.00     0.211 C 
HETATM   29  O   UNL     1       4.869   5.988   0.000  1.00  0.00    -0.215 OA
ENDBRANCH   3  28
BRANCH  11  30
HETATM   30  O   UNL     1       6.168  -0.762   0.000  1.00  0.00    -0.326 OA
HETATM   31  C   UNL     1       4.869  -1.512   0.000  1.00  0.00     0.181 C 
ENDBRANCH  11  30
TORSDOF 3
