REMARK  3 active torsions:
REMARK  status: ('A' for Active; 'I' for Inactive)
REMARK    1  A    between atoms: N_4  and  C_13 
REMARK    2  A    between atoms: N_4  and  C_18 
REMARK    3  A    between atoms: C_7  and  C_18 
ROOT
HETATM    1  C   UNL     1       3.522   7.399   0.000  1.00  0.00     0.065 C 
HETATM    2  C   UNL     1       3.522   8.899   0.000  1.00  0.00     0.052 C 
ENDROOT
BRANCH   1   3
HETATM    3  N   UNL     1       4.821   6.649   0.000  1.00  0.00    -0.254 NA
BRANCH   3   4
HETATM    4  C   UNL     1       6.120   7.399   0.000  1.00  0.00     0.065 A 
HETATM    5  C   UNL     1       6.120   8.899   0.000  1.00  0.00     0.046 A 
HETATM    6  C   UNL     1       7.419   9.649   0.000  1.00  0.00     0.007 A 
HETATM    7  C   UNL     1       8.718   8.899   0.000  1.00  0.00     0.006 A 
HETATM    8  C   UNL     1       8.718   7.399   0.000  1.00  0.00     0.039 A 
HETATM    9  C   UNL     1       7.419   6.649   0.000  1.00  0.00     0.049 A 
HETATM   10 CL   UNL     1       7.419   5.149   0.000  1.00  0.00    -0.086 Cl
ENDBRANCH   3   4
ENDBRANCH   1   3
BRANCH   1  11
HETATM   11  C   UNL     1       2.223   6.649   0.000  1.00  0.00     0.084 A 
HETATM   12  C   UNL     1       0.924   7.399   0.000  1.00  0.00     0.231 A 
HETATM   13  O   UNL     1      -0.375   6.649   0.000  1.00  0.00    -0.311 OA
HETATM   14  O   UNL     1       0.924   8.899   0.000  1.00  0.00    -0.163 OA
HETATM   15  C   UNL     1      -0.375   5.149   0.000  1.00  0.00     0.130 A 
HETATM   16  C   UNL     1       0.924   4.399   0.000  1.00  0.00     0.085 A 
HETATM   17  C   UNL     1      -1.674   4.399   0.000  1.00  0.00     0.033 C 
HETATM   18  C   UNL     1       2.223   5.149   0.000  1.00  0.00     0.116 A 
HETATM   19  O   UNL     1       3.522   4.399   0.000  1.00  0.00    -0.195 OA
ENDBRANCH   1  11
TORSDOF 3
