REMARK  3 active torsions:
REMARK  status: ('A' for Active; 'I' for Inactive)
REMARK    1  A    between atoms: C_6  and  C_8 
REMARK    2  A    between atoms: C_12  and  N_23 
REMARK    3  A    between atoms: C_13  and  N_23 
ROOT
HETATM    1  C   UNL     1       6.426  -4.435   0.000  1.00  0.00     0.271 A 
HETATM    2  O   UNL     1       7.926  -4.435   0.000  1.00  0.00    -0.162 OA
HETATM    3  N   UNL     1       6.426  -7.033   0.000  1.00  0.00    -0.208 N 
HETATM    4  O   UNL     1       8.676  -5.734   0.000  1.00  0.00    -0.149 OA
HETATM    5  C   UNL     1       7.926  -7.033   0.000  1.00  0.00     0.297 A 
HETATM    6  N   UNL     1       5.676  -5.734   0.000  1.00  0.00    -0.135 NA
HETATM    7  C   UNL     1       5.676  -8.332   0.000  1.00  0.00     0.158 C 
ENDROOT
BRANCH   1   8
HETATM    8  C   UNL     1       5.676  -3.136   0.000  1.00  0.00     0.225 A 
HETATM    9  O   UNL     1       6.426  -1.837   0.000  1.00  0.00    -0.289 OA
HETATM   10  C   UNL     1       5.668  -0.381   0.000  1.00  0.00     0.102 A 
HETATM   11  C   UNL     1       5.980   1.087   0.000  1.00  0.00     0.086 A 
HETATM   12  C   UNL     1       4.176  -0.537   0.000  1.00  0.00     0.115 A 
HETATM   13  C   UNL     1       4.681   1.837   0.000  1.00  0.00     0.155 A 
HETATM   14  O   UNL     1       3.566   0.833   0.000  1.00  0.00    -0.331 OA
HETATM   15  C   UNL     1       3.426  -1.837   0.000  1.00  0.00     0.180 A 
HETATM   16  N   UNL     1       4.176  -3.136   0.000  1.00  0.00    -0.238 NA
ENDBRANCH   1   8
BRANCH   5  17
HETATM   17  N   UNL     1       8.676  -8.332   0.000  1.00  0.00    -0.212 NA
BRANCH  17  18
HETATM   18  C   UNL     1      10.176  -8.332   0.000  1.00  0.00     0.041 A 
HETATM   19  C   UNL     1      10.926  -7.033   0.000  1.00  0.00     0.042 A 
HETATM   20  C   UNL     1      12.426  -7.033   0.000  1.00  0.00     0.006 A 
HETATM   21  C   UNL     1      13.176  -8.332   0.000  1.00  0.00     0.001 A 
HETATM   22  C   UNL     1      12.426  -9.631   0.000  1.00  0.00     0.006 A 
HETATM   23  C   UNL     1      10.926  -9.631   0.000  1.00  0.00     0.042 A 
ENDBRANCH  17  18
ENDBRANCH   5  17
TORSDOF 3
