REMARK  5 active torsions:
REMARK  status: ('A' for Active; 'I' for Inactive)
REMARK    1  A    between atoms: C_7  and  S_9 
REMARK    2  A    between atoms: S_9  and  C_21 
REMARK    3  A    between atoms: C_11  and  C_21 
REMARK    4  A    between atoms: C_14  and  N_24 
REMARK    5  A    between atoms: C_15  and  N_24 
ROOT
HETATM    1  C   UNL     1       2.359 -10.699   0.000  1.00  0.00     0.221 A 
HETATM    2  O   UNL     1       1.355  -9.584   0.000  1.00  0.00    -0.170 OA
HETATM    3  O   UNL     1       1.818  -8.158   0.000  1.00  0.00    -0.147 OA
HETATM    4  C   UNL     1       3.286  -7.846   0.000  1.00  0.00     0.318 A 
HETATM    5  N   UNL     1       3.826 -10.387   0.000  1.00  0.00    -0.120 NA
HETATM    6  N   UNL     1       4.289  -8.960   0.000  1.00  0.00    -0.099 NA
ENDROOT
BRANCH   1   7
HETATM    7  C   UNL     1       1.895 -12.125   0.000  1.00  0.00     0.138 C 
BRANCH   7   8
HETATM    8  S   UNL     1       0.428 -12.437   0.000  1.00  0.00    -0.109 SA
BRANCH   8   9
HETATM    9  C   UNL     1      -0.036 -13.864   0.000  1.00  0.00    -0.001 A 
HETATM   10  C   UNL     1      -1.462 -14.327   0.000  1.00  0.00    -0.028 A 
HETATM   11  C   UNL     1      -2.761 -13.577   0.000  1.00  0.00     0.026 A 
HETATM   12  C   UNL     1      -1.462 -15.827   0.000  1.00  0.00    -0.048 A 
HETATM   13  C   UNL     1      -4.060 -14.327   0.000  1.00  0.00     0.005 A 
HETATM   14  C   UNL     1      -4.060 -15.827   0.000  1.00  0.00     0.005 A 
HETATM   15  C   UNL     1      -2.761 -16.577   0.000  1.00  0.00     0.022 A 
HETATM   16  C   UNL     1      -0.036 -16.291   0.000  1.00  0.00     0.027 A 
HETATM   17  C   UNL     1       0.846 -15.077   0.000  1.00  0.00     0.037 A 
ENDBRANCH   8   9
ENDBRANCH   7   8
ENDBRANCH   1   7
BRANCH   4  18
HETATM   18  N   UNL     1       3.749  -6.419   0.000  1.00  0.00    -0.207 NA
BRANCH  18  19
HETATM   19  C   UNL     1       2.745  -5.304   0.000  1.00  0.00     0.055 A 
HETATM   20  C   UNL     1       1.278  -5.616   0.000  1.00  0.00     0.045 A 
HETATM   21  C   UNL     1       0.275  -4.501   0.000  1.00  0.00     0.007 A 
HETATM   22  C   UNL     1       0.738  -3.075   0.000  1.00  0.00     0.004 A 
HETATM   23  C   UNL     1       2.205  -2.763   0.000  1.00  0.00     0.023 A 
HETATM   24  C   UNL     1      -0.266  -1.960   0.000  1.00  0.00     0.000 C 
HETATM   25  C   UNL     1       3.209  -3.878   0.000  1.00  0.00    -0.030 A 
HETATM   26  C   UNL     1       4.676  -3.566   0.000  1.00  0.00     0.028 C 
ENDBRANCH  18  19
ENDBRANCH   4  18
TORSDOF 5
