REMARK  3 active torsions:
REMARK  status: ('A' for Active; 'I' for Inactive)
REMARK    1  A    between atoms: C_9  and  N_20 
REMARK       I    between atoms: C_10  and  N_20 
REMARK       I    between atoms: C_10  and  N_21 
REMARK    2  A    between atoms: C_12  and  N_21 
REMARK    3  A    between atoms: C_16  and  S_17 
ROOT
HETATM    1  C   UNL     1       6.154   5.285   0.000  1.00  0.00     0.302 C 
HETATM    2  O   UNL     1       5.404   6.584   0.000  1.00  0.00    -0.147 OA
HETATM    3  N   UNL     1       5.404   3.986   0.000  1.00  0.00    -0.178 NA
HETATM    4  N   UNL     1       7.654   5.285   0.000  1.00  0.00    -0.212 NA
ENDROOT
BRANCH   3   5
HETATM    5  C   UNL     1       3.904   3.986   0.000  1.00  0.00     0.197 A 
HETATM    6  N   UNL     1       3.022   5.200   0.000  1.00  0.00    -0.222 NA
HETATM    7  C   UNL     1       1.596   4.736   0.000  1.00  0.00     0.078 A 
HETATM    8  C   UNL     1       0.297   5.486   0.000  1.00  0.00    -0.026 A 
HETATM    9  C   UNL     1       1.596   3.236   0.000  1.00  0.00     0.027 A 
HETATM   10  C   UNL     1      -1.002   4.736   0.000  1.00  0.00     0.024 A 
HETATM   11  C   UNL     1       0.297   6.986   0.000  1.00  0.00     0.028 C 
HETATM   12  C   UNL     1      -1.002   3.236   0.000  1.00  0.00     0.010 A 
HETATM   13  C   UNL     1       0.297   2.486   0.000  1.00  0.00     0.035 A 
HETATM   14  S   UNL     1       3.022   2.772   0.000  1.00  0.00    -0.051 SA
ENDBRANCH   3   5
BRANCH   4  15
HETATM   15  C   UNL     1       8.404   6.584   0.000  1.00  0.00     0.041 A 
HETATM   16  C   UNL     1       7.654   7.883   0.000  1.00  0.00     0.042 A 
HETATM   17  C   UNL     1       8.404   9.182   0.000  1.00  0.00     0.007 A 
HETATM   18  C   UNL     1       9.904   9.182   0.000  1.00  0.00     0.012 A 
HETATM   19  C   UNL     1      10.654   7.883   0.000  1.00  0.00     0.053 A 
HETATM   20  C   UNL     1       9.904   6.584   0.000  1.00  0.00     0.052 A 
BRANCH  19  21
HETATM   21  S   UNL     1      12.154   7.883   0.000  1.00  0.00    -0.140 SA
HETATM   22  C   UNL     1      12.904   9.182   0.000  1.00  0.00     0.069 C 
ENDBRANCH  19  21
ENDBRANCH   4  15
TORSDOF 3
