REMARK  2 active torsions:
REMARK  status: ('A' for Active; 'I' for Inactive)
REMARK    1  A    between atoms: C_10  and  C_11 
REMARK    2  A    between atoms: C_11  and  O_13 
ROOT
HETATM    1  C   UNL     1       1.330   0.803   0.000  1.00  0.00     0.152 A 
HETATM    2  C   UNL     1       2.211   2.016   0.000  1.00  0.00     0.136 A 
HETATM    3  N   UNL     1       2.211  -0.411   0.000  1.00  0.00    -0.247 NA
HETATM    4  N   UNL     1       3.638   1.553   0.000  1.00  0.00    -0.288 N 
HETATM    5  C   UNL     1       3.638   0.053   0.000  1.00  0.00     0.172 A 
HETATM    6  O   UNL     1       4.937   3.803   0.000  1.00  0.00    -0.175 OA
HETATM    7  C   UNL     1       4.937   2.303   0.000  1.00  0.00     0.178 A 
HETATM    8  S   UNL     1       4.937  -0.697   0.000  1.00  0.00    -0.050 SA
HETATM    9  C   UNL     1       6.236   1.553   0.000  1.00  0.00     0.110 A 
HETATM   10  C   UNL     1       6.236   0.053   0.000  1.00  0.00     0.067 A 
ENDROOT
BRANCH  10  11
HETATM   11  C   UNL     1       7.535  -0.697   0.000  1.00  0.00     0.231 C 
HETATM   12  O   UNL     1       8.834   0.053   0.000  1.00  0.00    -0.163 OA
BRANCH  11  13
HETATM   13  O   UNL     1       7.535  -2.197   0.000  1.00  0.00    -0.306 OA
HETATM   14  C   UNL     1       8.834  -2.947   0.000  1.00  0.00     0.184 C 
ENDBRANCH  11  13
ENDBRANCH  10  11
TORSDOF 2
