REMARK  3 active torsions:
REMARK  status: ('A' for Active; 'I' for Inactive)
REMARK    1  A    between atoms: C_9  and  N_19 
REMARK       I    between atoms: C_10  and  N_19 
REMARK       I    between atoms: C_10  and  N_20 
REMARK    2  A    between atoms: C_12  and  N_20 
REMARK    3  A    between atoms: C_16  and  N_21 
ROOT
HETATM    1  C   UNL     1       5.404   6.584   0.000  1.00  0.00     0.302 C 
HETATM    2  O   UNL     1       4.654   7.883   0.000  1.00  0.00    -0.147 OA
HETATM    3  N   UNL     1       4.654   5.285   0.000  1.00  0.00    -0.178 NA
HETATM    4  N   UNL     1       6.904   6.584   0.000  1.00  0.00    -0.212 NA
ENDROOT
BRANCH   3   5
HETATM    5  C   UNL     1       3.154   5.285   0.000  1.00  0.00     0.197 A 
HETATM    6  S   UNL     1       2.272   4.072   0.000  1.00  0.00    -0.052 SA
HETATM    7  C   UNL     1       0.846   4.535   0.000  1.00  0.00     0.024 A 
HETATM    8  C   UNL     1      -0.453   3.785   0.000  1.00  0.00     0.034 A 
HETATM    9  C   UNL     1       0.846   6.035   0.000  1.00  0.00     0.063 A 
HETATM   10  C   UNL     1      -1.752   4.535   0.000  1.00  0.00     0.006 A 
HETATM   11  C   UNL     1      -1.752   6.035   0.000  1.00  0.00     0.007 A 
HETATM   12  C   UNL     1      -0.453   6.785   0.000  1.00  0.00     0.046 A 
HETATM   13  N   UNL     1       2.272   6.499   0.000  1.00  0.00    -0.225 NA
ENDBRANCH   3   5
BRANCH   4  14
HETATM   14  C   UNL     1       7.654   7.883   0.000  1.00  0.00     0.047 A 
HETATM   15  C   UNL     1       6.904   9.182   0.000  1.00  0.00     0.048 A 
HETATM   16  C   UNL     1       7.654  10.481   0.000  1.00  0.00     0.045 A 
HETATM   17  C   UNL     1       9.154  10.481   0.000  1.00  0.00     0.054 A 
HETATM   18  C   UNL     1       9.904   9.182   0.000  1.00  0.00     0.116 A 
HETATM   19 CL   UNL     1       9.904  11.780   0.000  1.00  0.00    -0.086 Cl
HETATM   20  C   UNL     1       9.154   7.883   0.000  1.00  0.00     0.092 A 
BRANCH  18  21
HETATM   21  N   UNL     1      11.404   9.182   0.000  1.00  0.00    -0.117 N 
HETATM   22  O   UNL     1      12.154  10.481   0.000  1.00  0.00    -0.532 OA
HETATM   23  O   UNL     1      12.154   7.883   0.000  1.00  0.00    -0.532 OA
ENDBRANCH  18  21
ENDBRANCH   4  14
TORSDOF 3
