REMARK  5 active torsions:
REMARK  status: ('A' for Active; 'I' for Inactive)
REMARK    1  A    between atoms: C_1  and  N_9 
REMARK    2  A    between atoms: N_3  and  C_12 
REMARK    3  A    between atoms: O_6  and  C_8 
REMARK    4  A    between atoms: O_6  and  C_13 
REMARK    5  A    between atoms: C_12  and  C_13 
ROOT
HETATM    1  C   UNL     1      -6.666   4.964   0.000  1.00  0.00     0.192 A 
HETATM    2  C   UNL     1      -7.781   5.967   0.000  1.00  0.00     0.195 A 
HETATM    3  N   UNL     1      -7.276   3.593   0.000  1.00  0.00    -0.298 N 
HETATM    4  C   UNL     1      -8.768   3.750   0.000  1.00  0.00     0.117 A 
HETATM    5  N   UNL     1      -9.080   5.217   0.000  1.00  0.00    -0.250 NA
HETATM    6  C   UNL     1      -9.772   2.635   0.000  1.00  0.00     0.072 C 
ENDROOT
BRANCH   3   7
HETATM    7  C   UNL     1      -6.526   2.294   0.000  1.00  0.00     0.141 C 
BRANCH   7   8
HETATM    8  C   UNL     1      -7.276   0.995   0.000  1.00  0.00     0.172 C 
BRANCH   8   9
HETATM    9  O   UNL     1      -6.526  -0.304   0.000  1.00  0.00    -0.298 OA
BRANCH   9  10
HETATM   10  C   UNL     1      -5.026  -0.304   0.000  1.00  0.00     0.580 C 
HETATM   11  O   UNL     1      -4.276   0.995   0.000  1.00  0.00    -0.151 OA
HETATM   12  N   UNL     1      -4.276  -1.603   0.000  1.00  0.00     0.688 N 
ENDBRANCH   9  10
ENDBRANCH   8   9
ENDBRANCH   7   8
ENDBRANCH   3   7
BRANCH   1  13
HETATM   13  N   UNL     1      -5.199   5.275   0.000  1.00  0.00    -0.099 N 
HETATM   14  O   UNL     1      -4.736   6.702   0.000  1.00  0.00    -0.531 OA
HETATM   15  O   UNL     1      -4.195   4.161   0.000  1.00  0.00    -0.531 OA
ENDBRANCH   1  13
TORSDOF 5
