REMARK  0 active torsions:
REMARK  status: ('A' for Active; 'I' for Inactive)
ROOT
HETATM    1  O   UNL     1      -4.752  -6.398   0.000  1.00  0.00    -0.191 OA
HETATM    2  N   UNL     1      -0.005  -8.512   0.000  1.00  0.00    -0.345 N 
HETATM    3  O   UNL     1       0.334  -2.131   0.000  1.00  0.00    -0.304 OA
HETATM    4  O   UNL     1       1.760  -4.094   0.000  1.00  0.00    -0.300 OA
HETATM    5  C   UNL     1      -2.040  -3.501   0.000  1.00  0.00     0.058 A 
HETATM    6  C   UNL     1      -2.650  -4.871   0.000  1.00  0.00     0.033 A 
HETATM    7  C   UNL     1      -0.548  -3.344   0.000  1.00  0.00     0.097 A 
HETATM    8  C   UNL     1       0.334  -4.558   0.000  1.00  0.00     0.113 A 
HETATM    9  C   UNL     1      -1.768  -6.085   0.000  1.00  0.00    -0.019 A 
HETATM   10  C   UNL     1      -0.277  -5.928   0.000  1.00  0.00     0.020 A 
HETATM   11  C   UNL     1      -2.378  -7.455   0.000  1.00  0.00     0.033 A 
HETATM   12  C   UNL     1      -3.870  -7.612   0.000  1.00  0.00     0.128 A 
HETATM   13  C   UNL     1      -4.480  -8.982   0.000  1.00  0.00     0.003 A 
HETATM   14  C   UNL     1      -5.972  -9.139   0.000  1.00  0.00     0.080 A 
HETATM   15  C   UNL     1      -6.582 -10.509   0.000  1.00  0.00     0.095 A 
HETATM   16  C   UNL     1       0.605  -7.141   0.000  1.00  0.00     0.130 A 
HETATM   17  C   UNL     1      -3.599 -10.196   0.000  1.00  0.00    -0.034 A 
HETATM   18  C   UNL     1      -5.700 -11.723   0.000  1.00  0.00     0.094 A 
HETATM   19  C   UNL     1      -4.209 -11.566   0.000  1.00  0.00     0.075 A 
HETATM   20  C   UNL     1      -2.107 -10.039   0.000  1.00  0.00     0.066 A 
HETATM   21  C   UNL     1      -1.497  -8.669   0.000  1.00  0.00     0.039 A 
HETATM   22  C   UNL     1       1.760  -2.594   0.000  1.00  0.00     0.304 A 
HETATM   23  O   UNL     1      -8.074 -10.666   0.000  1.00  0.00    -0.330 OA
HETATM   24  C   UNL     1      -8.684 -12.036   0.000  1.00  0.00     0.181 A 
HETATM   25  O   UNL     1      -6.311 -13.093   0.000  1.00  0.00    -0.330 OA
HETATM   26  C   UNL     1      -7.802 -13.250   0.000  1.00  0.00     0.181 A 
HETATM   27  C   UNL     1       0.877  -9.725   0.000  1.00  0.00     0.126 C 
ENDROOT
TORSDOF 0
