REMARK  1 active torsions:
REMARK  status: ('A' for Active; 'I' for Inactive)
REMARK    1  A    between atoms: C_4  and  C_8 
ROOT
HETATM    1  S   UNL     1      -7.632  -1.036   0.000  1.00  0.00    -0.071 SA
HETATM    2  N   UNL     1      -7.632  -3.463   0.000  1.00  0.00    -0.243 NA
HETATM    3  C   UNL     1      -6.750  -2.250   0.000  1.00  0.00     0.108 A 
HETATM    4  C   UNL     1     -10.357  -0.750   0.000  1.00  0.00     0.034 A 
HETATM    5  C   UNL     1     -11.656  -1.500   0.000  1.00  0.00     0.006 A 
HETATM    6  C   UNL     1      -9.058  -1.500   0.000  1.00  0.00     0.022 A 
HETATM    7  C   UNL     1      -9.058  -3.000   0.000  1.00  0.00     0.062 A 
HETATM    8  C   UNL     1     -11.656  -3.000   0.000  1.00  0.00     0.007 A 
HETATM    9  C   UNL     1     -10.357  -3.750   0.000  1.00  0.00     0.046 A 
ENDROOT
BRANCH   3  10
HETATM   10  C   UNL     1      -5.250  -2.250   0.000  1.00  0.00     0.023 A 
HETATM   11  C   UNL     1      -4.500  -0.951   0.000  1.00  0.00     0.033 A 
HETATM   12  C   UNL     1      -3.000  -0.951   0.000  1.00  0.00     0.038 A 
HETATM   13  C   UNL     1      -2.250  -2.250   0.000  1.00  0.00     0.159 A 
HETATM   14  C   UNL     1      -3.000  -3.549   0.000  1.00  0.00     0.087 A 
HETATM   15  O   UNL     1      -0.750  -2.250   0.000  1.00  0.00    -0.223 OA
HETATM   16  C   UNL     1      -4.500  -3.549   0.000  1.00  0.00     0.109 A 
HETATM   17  O   UNL     1      -5.250  -4.848   0.000  1.00  0.00    -0.195 OA
ENDBRANCH   3  10
TORSDOF 1
