REMARK  2 active torsions:
REMARK  status: ('A' for Active; 'I' for Inactive)
REMARK    1  A    between atoms: C_5  and  C_8 
REMARK    2  A    between atoms: C_6  and  C_16 
ROOT
HETATM    1  C   UNL     1      -5.022   1.801   0.000  1.00  0.00     0.028 A 
HETATM    2  C   UNL     1      -3.723   1.051   0.000  1.00  0.00     0.026 A 
HETATM    3  C   UNL     1      -6.321   1.051   0.000  1.00  0.00    -0.020 A 
HETATM    4  C   UNL     1      -3.723  -0.449   0.000  1.00  0.00    -0.051 A 
HETATM    5  C   UNL     1      -6.321  -0.449   0.000  1.00  0.00     0.028 A 
HETATM    6  C   UNL     1      -5.022  -1.199   0.000  1.00  0.00     0.026 A 
ENDROOT
BRANCH   3   7
HETATM    7  C   UNL     1      -7.620   1.801   0.000  1.00  0.00     0.102 A 
HETATM    8  S   UNL     1      -7.777   3.293   0.000  1.00  0.00    -0.072 SA
HETATM    9  C   UNL     1      -9.244   3.605   0.000  1.00  0.00     0.022 A 
HETATM   10  C   UNL     1      -9.994   4.904   0.000  1.00  0.00     0.034 A 
HETATM   11  C   UNL     1      -9.994   2.306   0.000  1.00  0.00     0.062 A 
HETATM   12  C   UNL     1     -11.494   4.904   0.000  1.00  0.00     0.006 A 
HETATM   13  C   UNL     1     -12.244   3.605   0.000  1.00  0.00     0.007 A 
HETATM   14  C   UNL     1     -11.494   2.306   0.000  1.00  0.00     0.046 A 
HETATM   15  N   UNL     1      -8.991   1.191   0.000  1.00  0.00    -0.244 NA
ENDBRANCH   3   7
BRANCH   4  16
HETATM   16  C   UNL     1      -2.424  -1.199   0.000  1.00  0.00    -0.051 C 
HETATM   17  C   UNL     1      -1.125  -0.449   0.000  1.00  0.00     0.026 C 
HETATM   18  C   UNL     1      -2.424  -2.699   0.000  1.00  0.00     0.026 C 
ENDBRANCH   4  16
TORSDOF 2
