REMARK  5 active torsions:
REMARK  status: ('A' for Active; 'I' for Inactive)
REMARK    1  A    between atoms: N_5  and  C_14 
REMARK    2  A    between atoms: C_7  and  C_8 
REMARK    3  A    between atoms: C_7  and  C_14 
REMARK    4  A    between atoms: C_8  and  C_15 
REMARK    5  A    between atoms: N_9  and  C_15 
ROOT
HETATM    1  C   UNL     1      -0.311  -1.641   0.000  1.00  0.00    -0.064 C 
ENDROOT
BRANCH   1   2
HETATM    2  C   UNL     1       1.188  -1.574   0.000  1.00  0.00    -0.064 C 
BRANCH   2   3
HETATM    3  C   UNL     1       2.686  -1.507   0.000  1.00  0.00     0.175 C 
BRANCH   3   4
HETATM    4  N   UNL     1       3.378  -0.176   0.000  1.00  0.00    -0.358 N 
HETATM    5  C   UNL     1       2.707   1.166   0.000  1.00  0.00     0.098 A 
HETATM    6  C   UNL     1       3.776   2.218   0.000  1.00  0.00     0.026 A 
HETATM    7  C   UNL     1       5.107   1.527   0.000  1.00  0.00     0.026 A 
HETATM    8  C   UNL     1       4.861   0.047   0.000  1.00  0.00     0.098 A 
ENDBRANCH   3   4
ENDBRANCH   2   3
ENDBRANCH   1   2
BRANCH   1   9
HETATM    9  C   UNL     1      -1.809  -1.708   0.000  1.00  0.00     0.180 C 
BRANCH   9  10
HETATM   10  N   UNL     1      -2.616  -0.444   0.000  1.00  0.00    -0.320 N 
HETATM   11  C   UNL     1      -2.068   0.953   0.000  1.00  0.00     0.104 A 
HETATM   12  C   UNL     1      -3.227   1.905   0.000  1.00  0.00     0.033 A 
HETATM   13  C   UNL     1      -4.491   1.098   0.000  1.00  0.00     0.074 A 
HETATM   14  C   UNL     1      -4.114  -0.354   0.000  1.00  0.00     0.168 A 
HETATM   15  O   UNL     1      -5.067  -1.512   0.000  1.00  0.00    -0.176 OA
ENDBRANCH   9  10
ENDBRANCH   1   9
TORSDOF 5
