REMARK  1 active torsions:
REMARK  status: ('A' for Active; 'I' for Inactive)
REMARK    1  A    between atoms: C_13  and  C_40 
ROOT
HETATM    1  C   UNL     1       4.764   1.105   0.000  1.00  0.00     0.099 A 
HETATM    2  C   UNL     1       3.894   3.553   0.000  1.00  0.00     0.079 A 
HETATM    3  C   UNL     1       2.620  -2.589   0.000  1.00  0.00     0.029 A 
HETATM    4  C   UNL     1      -2.980   1.912   0.000  1.00  0.00     0.005 A 
HETATM    5  C   UNL     1      -3.037   0.413   0.000  1.00  0.00     0.005 A 
HETATM    6  C   UNL     1      -1.755   2.778   0.000  1.00  0.00     0.054 A 
HETATM    7  C   UNL     1      -2.207  -3.657   0.000  1.00  0.00    -0.006 A 
HETATM    8  C   UNL     1       5.036   2.580   0.000  1.00  0.00     0.166 A 
HETATM    9  C   UNL     1       3.350   0.603   0.000  1.00  0.00    -0.012 A 
HETATM   10  C   UNL     1       2.481   3.051   0.000  1.00  0.00     0.058 A 
HETATM   11  C   UNL     1       2.209   1.576   0.000  1.00  0.00     0.008 A 
HETATM   12  C   UNL     1       2.563  -1.090   0.000  1.00  0.00     0.033 A 
HETATM   13  C   UNL     1      -1.718  -0.302   0.000  1.00  0.00     0.004 A 
HETATM   14  C   UNL     1      -0.716  -3.485   0.000  1.00  0.00    -0.022 A 
HETATM   15  C   UNL     1       1.267  -3.236   0.000  1.00  0.00    -0.026 A 
HETATM   16  C   UNL     1       3.849  -0.320   0.000  1.00  0.00     0.116 A 
HETATM   17  C   UNL     1       0.136  -2.251   0.000  1.00  0.00    -0.009 A 
HETATM   18  C   UNL     1      -2.993  -1.091   0.000  1.00  0.00     0.024 A 
HETATM   19  C   UNL     1      -0.436   2.064   0.000  1.00  0.00     0.054 A 
HETATM   20  C   UNL     1      -3.240  -2.570   0.000  1.00  0.00     0.002 A 
HETATM   21  C   UNL     1      -0.165   3.539   0.000  1.00  0.00     0.209 A 
HETATM   22  C   UNL     1      -5.585  -0.916   0.000  1.00  0.00     0.206 A 
HETATM   23  O   UNL     1      -1.274   4.548   0.000  1.00  0.00    -0.201 OA
HETATM   24  O   UNL     1      -5.686  -2.412   0.000  1.00  0.00    -0.289 OA
HETATM   25  O   UNL     1      -4.239  -0.255   0.000  1.00  0.00     0.000 OA
HETATM   26  C   UNL     1       0.211   0.710   0.000  1.00  0.00     0.004 A 
HETATM   27  C   UNL     1      -0.218  -0.258   0.000  1.00  0.00     0.001 A 
HETATM   28  C   UNL     1      -4.674  -3.010   0.000  1.00  0.00     0.120 A 
HETATM   29  C   UNL     1       0.056  -4.771   0.000  1.00  0.00     0.031 A 
HETATM   30  C   UNL     1       1.244  -0.376   0.000  1.00  0.00     0.003 A 
HETATM   31  O   UNL     1       6.449   3.083   0.000  1.00  0.00    -0.223 OA
HETATM   32  O   UNL     1       0.795   1.074   0.000  1.00  0.00     0.000 OA
HETATM   33  N   UNL     1       1.278   3.948   0.000  1.00  0.00    -0.249 NA
HETATM   34  N   UNL     1      -6.831  -0.080   0.000  1.00  0.00    -0.070 NA
HETATM   35  O   UNL     1       5.296  -0.716   0.000  1.00  0.00    -0.354 OA
HETATM   36  C   UNL     1       6.363   0.338   0.000  1.00  0.00     0.151 A 
HETATM   37  O   UNL     1       1.064  -4.723   0.000  1.00  0.00     0.000 OA
HETATM   38  C   UNL     1       2.250  -5.641   0.000  1.00  0.00     0.000 C 
HETATM   39  O   UNL     1       0.470  -0.788   0.000  1.00  0.00     0.000 OA
HETATM   40  C   UNL     1      -0.630   0.232   0.000  1.00  0.00     0.001 A 
ENDROOT
TORSDOF 1
