REMARK  4 active torsions:
REMARK  status: ('A' for Active; 'I' for Inactive)
REMARK    1  A    between atoms: O_1  and  C_3 
REMARK    2  A    between atoms: O_1  and  C_15 
REMARK       I    between atoms: C_3  and  N_17 
REMARK    3  A    between atoms: C_5  and  N_17 
REMARK    4  A    between atoms: C_14  and  C_19 
ROOT
HETATM    1  N   UNL     1       5.946   4.500   0.000  1.00  0.00    -0.215 NA
HETATM    2  C   UNL     1       5.946   3.000   0.000  1.00  0.00     0.151 A 
HETATM    3  C   UNL     1       7.245   5.250   0.000  1.00  0.00     0.171 A 
HETATM    4  C   UNL     1       7.245   2.250   0.000  1.00  0.00     0.111 A 
HETATM    5  C   UNL     1       8.544   4.500   0.000  1.00  0.00     0.123 A 
HETATM    6  C   UNL     1       8.544   3.000   0.000  1.00  0.00     0.058 A 
HETATM    7  N   UNL     1       9.843   5.250   0.000  1.00  0.00    -0.245 NA
HETATM    8  N   UNL     1       9.843   2.250   0.000  1.00  0.00    -0.370 N 
HETATM    9  H   UNL     1       9.843   0.750   0.000  1.00  0.00     0.161 HD
HETATM   10  C   UNL     1      11.142   3.000   0.000  1.00  0.00     0.144 A 
HETATM   11  C   UNL     1      11.142   4.500   0.000  1.00  0.00     0.074 A 
HETATM   12  N   UNL     1       7.245   6.750   0.000  1.00  0.00    -0.078 NA
ENDROOT
BRANCH   2  13
HETATM   13  N   UNL     1       4.647   2.250   0.000  1.00  0.00    -0.183 NA
HETATM   14  C   UNL     1       3.348   3.000   0.000  1.00  0.00     0.320 C 
HETATM   15  O   UNL     1       3.348   4.500   0.000  1.00  0.00    -0.141 OA
BRANCH  14  16
HETATM   16  O   UNL     1       2.049   2.250   0.000  1.00  0.00    -0.294 OA
BRANCH  16  17
HETATM   17  C   UNL     1       0.750   3.000   0.000  1.00  0.00     0.153 C 
HETATM   18  C   UNL     1       0.750   4.500   0.000  1.00  0.00     0.035 C 
ENDBRANCH  16  17
ENDBRANCH  14  16
ENDBRANCH   2  13
BRANCH  11  19
HETATM   19  C   UNL     1      12.441   5.250   0.000  1.00  0.00    -0.029 A 
HETATM   20  C   UNL     1      12.441   6.750   0.000  1.00  0.00     0.023 A 
HETATM   21  C   UNL     1      13.740   7.500   0.000  1.00  0.00     0.004 A 
HETATM   22  C   UNL     1      15.039   6.750   0.000  1.00  0.00     0.001 A 
HETATM   23  C   UNL     1      15.039   5.250   0.000  1.00  0.00     0.004 A 
HETATM   24  C   UNL     1      13.740   4.500   0.000  1.00  0.00     0.023 A 
ENDBRANCH  11  19
TORSDOF 4
