REMARK  3 active torsions:
REMARK  status: ('A' for Active; 'I' for Inactive)
REMARK    1  A    between atoms: O_1  and  C_4 
REMARK    2  A    between atoms: O_2  and  C_3 
REMARK    3  A    between atoms: C_13  and  C_16 
ROOT
HETATM    1  C   UNL     1       4.000   1.476   0.000  1.00  0.00     0.096 A 
HETATM    2  C   UNL     1       4.464   2.903   0.000  1.00  0.00     0.095 A 
HETATM    3  C   UNL     1       5.931   3.215   0.000  1.00  0.00     0.082 A 
HETATM    4  C   UNL     1       5.004   0.362   0.000  1.00  0.00     0.099 A 
HETATM    5  C   UNL     1       6.471   0.673   0.000  1.00  0.00     0.073 A 
HETATM    6  C   UNL     1       6.934   2.100   0.000  1.00  0.00     0.026 A 
HETATM    7  C   UNL     1       8.434   2.100   0.000  1.00  0.00     0.146 A 
HETATM    8  N   UNL     1       7.684  -0.208   0.000  1.00  0.00    -0.188 N 
HETATM    9  O   UNL     1       7.684  -1.708   0.000  1.00  0.00    -0.080 OA
HETATM   10  O   UNL     1       9.316   3.314   0.000  1.00  0.00    -0.189 OA
HETATM   11  C   UNL     1       8.898   0.673   0.000  1.00  0.00     0.107 A 
ENDROOT
BRANCH  11  12
HETATM   12  C   UNL     1      10.325   0.210   0.000  1.00  0.00    -0.024 A 
HETATM   13  C   UNL     1      11.439   1.214   0.000  1.00  0.00     0.024 A 
HETATM   14  C   UNL     1      12.866   0.750   0.000  1.00  0.00     0.004 A 
HETATM   15  C   UNL     1      13.178  -0.717   0.000  1.00  0.00     0.001 A 
HETATM   16  C   UNL     1      12.063  -1.721   0.000  1.00  0.00     0.004 A 
HETATM   17  C   UNL     1      10.636  -1.257   0.000  1.00  0.00     0.024 A 
ENDBRANCH  11  12
BRANCH   2  18
HETATM   18  O   UNL     1       3.460   4.018   0.000  1.00  0.00    -0.330 OA
HETATM   19  C   UNL     1       3.923   5.444   0.000  1.00  0.00     0.181 C 
ENDBRANCH   2  18
BRANCH   1  20
HETATM   20  O   UNL     1       2.533   1.164   0.000  1.00  0.00    -0.330 OA
HETATM   21  C   UNL     1       1.529   2.279   0.000  1.00  0.00     0.181 C 
ENDBRANCH   1  20
TORSDOF 3
