REMARK  1 active torsions:
REMARK  status: ('A' for Active; 'I' for Inactive)
REMARK    1  A    between atoms: C_1  and  C_9 
ROOT
HETATM    1  C   UNL     1       0.189  -4.436   0.000  1.00  0.00     0.136 A 
HETATM    2  N   UNL     1      -0.421  -3.065   0.000  1.00  0.00    -0.149 NA
HETATM    3  N   UNL     1       1.681  -4.279   0.000  1.00  0.00    -0.309 N 
HETATM    4  H   UNL     1       2.685  -5.394   0.000  1.00  0.00     0.178 HD
HETATM    5  N   UNL     1       1.993  -2.812   0.000  1.00  0.00    -0.073 NA
HETATM    6  C   UNL     1       0.694  -2.062   0.000  1.00  0.00     0.476 A 
HETATM    7  C   UNL     1      -2.848  -6.189   0.000  1.00  0.00     0.000 A 
HETATM    8  C   UNL     1      -2.098  -4.890   0.000  1.00  0.00     0.003 A 
HETATM    9  C   UNL     1      -0.598  -4.890   0.000  1.00  0.00     0.038 A 
HETATM   10  C   UNL     1       0.152  -6.189   0.000  1.00  0.00     0.038 A 
HETATM   11  C   UNL     1      -0.598  -7.488   0.000  1.00  0.00     0.003 A 
HETATM   12  C   UNL     1      -2.098  -7.488   0.000  1.00  0.00     0.000 A 
HETATM   13  N   UNL     1      -0.823  -6.189   0.000  1.00  0.00     0.000 N 
HETATM   14  N   UNL     1       0.537  -0.570   0.000  1.00  0.00     0.658 N 
ENDROOT
TORSDOF 1
