REMARK  1 active torsions:
REMARK  status: ('A' for Active; 'I' for Inactive)
REMARK    1  A    between atoms: C_6  and  O_18 
ROOT
HETATM    1 CL   UNL     1       0.750   0.750   0.000  1.00  0.00    -0.091 Cl
HETATM    2  N   UNL     1       5.946   0.750   0.000  1.00  0.00    -0.255 NA
HETATM    3  C   UNL     1       5.946   3.750   0.000  1.00  0.00     0.049 A 
HETATM    4  C   UNL     1       7.245   3.000   0.000  1.00  0.00     0.002 A 
HETATM    5  C   UNL     1       8.544   3.750   0.000  1.00  0.00     0.058 A 
HETATM    6  C   UNL     1       9.843   3.000   0.000  1.00  0.00     0.120 A 
HETATM    7  C   UNL     1       4.647   3.000   0.000  1.00  0.00     0.000 A 
HETATM    8  C   UNL     1       3.348   3.750   0.000  1.00  0.00     0.033 A 
HETATM    9  C   UNL     1       2.049   3.000   0.000  1.00  0.00     0.039 A 
HETATM   10  C   UNL     1       9.843   1.500   0.000  1.00  0.00     0.036 A 
HETATM   11  C   UNL     1       7.245   1.500   0.000  1.00  0.00     0.055 A 
HETATM   12  C   UNL     1       4.647   1.500   0.000  1.00  0.00     0.060 A 
HETATM   13  C   UNL     1       2.049   1.500   0.000  1.00  0.00     0.020 A 
HETATM   14  C   UNL     1       8.544   0.750   0.000  1.00  0.00     0.048 A 
HETATM   15  C   UNL     1       3.348   0.750   0.000  1.00  0.00     0.079 A 
HETATM   16  C   UNL     1       5.946   5.250   0.000  1.00  0.00     0.021 C 
HETATM   17  N   UNL     1       5.946   6.750   0.000  1.00  0.00    -0.096 N 
ENDROOT
BRANCH   6  18
HETATM   18  O   UNL     1      11.142   3.750   0.000  1.00  0.00    -0.354 OA
HETATM   19  C   UNL     1      12.441   3.000   0.000  1.00  0.00     0.174 C 
ENDBRANCH   6  18
TORSDOF 1
