REMARK  1 active torsions:
REMARK  status: ('A' for Active; 'I' for Inactive)
REMARK    1  A    between atoms: N_9  and  C_18 
ROOT
HETATM    1  O   UNL     1      -3.549  -2.332   0.000  1.00  0.00    -0.151 OA
HETATM    2  H   UNL     1      -4.912   0.340   0.000  1.00  0.00     0.170 HD
HETATM    3  N   UNL     1      -3.414   0.263   0.000  1.00  0.00    -0.309 N 
HETATM    4  N   UNL     1      -1.234  -1.151   0.000  1.00  0.00    -0.304 N 
HETATM    5  S   UNL     1      -3.280   2.857   0.000  1.00  0.00    -0.058 SA
HETATM    6  H   UNL     1      -0.553  -2.487   0.000  1.00  0.00     0.171 HD
HETATM    7  N   UNL     1      -0.040   2.505   0.000  1.00  0.00    -0.327 N 
HETATM    8  H   UNL     1      -0.276   3.987   0.000  1.00  0.00     0.168 HD
HETATM    9  N   UNL     1       1.063   0.343   0.000  1.00  0.00    -0.278 N 
HETATM   10  S   UNL     1       2.633   2.507   0.000  1.00  0.00    -0.040 SA
HETATM   11  C   UNL     1      -2.598   1.521   0.000  1.00  0.00     0.134 A 
HETATM   12  C   UNL     1      -1.100   1.444   0.000  1.00  0.00     0.118 A 
HETATM   13  C   UNL     1      -0.418   0.108   0.000  1.00  0.00     0.147 A 
HETATM   14  C   UNL     1       1.297   1.825   0.000  1.00  0.00     0.184 A 
HETATM   15  C   UNL     1      -2.732  -1.073   0.000  1.00  0.00     0.258 A 
ENDROOT
BRANCH   9  16
HETATM   16  C   UNL     1       2.124  -0.717   0.000  1.00  0.00     0.022 A 
HETATM   17  C   UNL     1       3.573  -0.327   0.000  1.00  0.00     0.040 A 
HETATM   18  C   UNL     1       4.634  -1.387   0.000  1.00  0.00     0.006 A 
HETATM   19  C   UNL     1       4.247  -2.836   0.000  1.00  0.00     0.001 A 
HETATM   20  C   UNL     1       2.799  -3.226   0.000  1.00  0.00     0.006 A 
HETATM   21  C   UNL     1       1.737  -2.166   0.000  1.00  0.00     0.040 A 
ENDBRANCH   9  16
TORSDOF 1
