REMARK  2 active torsions:
REMARK  status: ('A' for Active; 'I' for Inactive)
REMARK    1  A    between atoms: C_1  and  C_11 
REMARK    2  A    between atoms: C_9  and  C_14 
ROOT
HETATM    1  C   UNL     1       1.865   2.852   0.000  1.00  0.00     0.091 A 
HETATM    2  N   UNL     1       1.708   1.360   0.000  1.00  0.00    -0.131 NA
HETATM    3  O   UNL     1       3.078   0.750   0.000  1.00  0.00    -0.215 OA
HETATM    4  C   UNL     1       3.332   3.164   0.000  1.00  0.00     0.079 A 
HETATM    5  C   UNL     1       4.082   1.865   0.000  1.00  0.00     0.113 A 
HETATM    6  C   UNL     1       4.082   4.463   0.000  1.00  0.00     0.197 A 
HETATM    7  O   UNL     1       3.332   5.762   0.000  1.00  0.00    -0.171 OA
HETATM    8  C   UNL     1       5.582   1.865   0.000  1.00  0.00     0.097 A 
HETATM    9  C   UNL     1       6.332   3.164   0.000  1.00  0.00     0.038 A 
HETATM   10  N   UNL     1       5.582   4.463   0.000  1.00  0.00    -0.309 N 
HETATM   11  C   UNL     1       6.332   5.762   0.000  1.00  0.00     0.132 C 
ENDROOT
BRANCH   9  12
HETATM   12  C   UNL     1       7.832   3.164   0.000  1.00  0.00    -0.032 A 
HETATM   13  C   UNL     1       8.582   4.463   0.000  1.00  0.00     0.023 A 
HETATM   14  C   UNL     1      10.082   4.463   0.000  1.00  0.00     0.004 A 
HETATM   15  C   UNL     1      10.832   3.164   0.000  1.00  0.00     0.001 A 
HETATM   16  C   UNL     1      10.082   1.865   0.000  1.00  0.00     0.004 A 
HETATM   17  C   UNL     1       8.582   1.865   0.000  1.00  0.00     0.023 A 
ENDBRANCH   9  12
BRANCH   1  18
HETATM   18  C   UNL     1       0.750   3.856   0.000  1.00  0.00     0.048 C 
HETATM   19  C   UNL     1       1.062   5.323   0.000  1.00  0.00     0.007 C 
ENDBRANCH   1  18
TORSDOF 2
