REMARK  2 active torsions:
REMARK  status: ('A' for Active; 'I' for Inactive)
REMARK    1  A    between atoms: C_2  and  N_16 
REMARK    2  A    between atoms: C_6  and  N_19 
REMARK       I    between atoms: C_7  and  N_9 
REMARK       I    between atoms: C_7  and  N_19 
ROOT
HETATM    1  C   UNL     1       0.275   6.221   0.000  1.00  0.00    -0.025 A 
HETATM    2  C   UNL     1       1.024   4.922   0.000  1.00  0.00     0.102 A 
HETATM    3  C   UNL     1       1.024   7.520   0.000  1.00  0.00     0.029 A 
HETATM    4  C   UNL     1       2.525   4.922   0.000  1.00  0.00     0.091 A 
HETATM    5  C   UNL     1       2.525   7.520   0.000  1.00  0.00     0.046 A 
HETATM    6  C   UNL     1       3.275   6.221   0.000  1.00  0.00     0.047 A 
HETATM    7  C   UNL     1      -1.226   6.221   0.000  1.00  0.00     0.028 C 
ENDROOT
BRANCH   6   8
HETATM    8  N   UNL     1       4.774   6.221   0.000  1.00  0.00    -0.213 NA
HETATM    9  C   UNL     1       5.524   7.520   0.000  1.00  0.00     0.277 C 
HETATM   10  O   UNL     1       4.774   8.819   0.000  1.00  0.00    -0.149 OA
HETATM   11  N   UNL     1       7.024   7.520   0.000  1.00  0.00    -0.312 N 
HETATM   12  C   UNL     1       7.774   8.819   0.000  1.00  0.00     0.105 A 
HETATM   13  C   UNL     1       7.774   6.221   0.000  1.00  0.00     0.105 A 
HETATM   14  C   UNL     1       9.274   8.819   0.000  1.00  0.00     0.024 A 
HETATM   15  C   UNL     1      10.024   7.520   0.000  1.00  0.00     0.004 A 
HETATM   16  C   UNL     1       9.274   6.221   0.000  1.00  0.00     0.024 A 
ENDBRANCH   6   8
BRANCH   2  17
HETATM   17  N   UNL     1       0.275   3.623   0.000  1.00  0.00    -0.118 N 
HETATM   18  O   UNL     1      -1.226   3.623   0.000  1.00  0.00    -0.532 OA
HETATM   19  O   UNL     1       1.024   2.324   0.000  1.00  0.00    -0.532 OA
ENDBRANCH   2  17
TORSDOF 2
