REMARK  1 active torsions:
REMARK  status: ('A' for Active; 'I' for Inactive)
REMARK    1  A    between atoms: C_11  and  C_14 
ROOT
HETATM    1  C   UNL     1      -0.855   6.558   0.000  1.00  0.00     0.005 A 
HETATM    2  C   UNL     1      -0.855   5.058   0.000  1.00  0.00     0.005 A 
HETATM    3  C   UNL     1       0.444   7.308   0.000  1.00  0.00     0.022 A 
HETATM    4  C   UNL     1       0.444   4.308   0.000  1.00  0.00     0.027 A 
HETATM    5  C   UNL     1       1.743   6.558   0.000  1.00  0.00    -0.042 A 
HETATM    6  C   UNL     1       1.743   5.058   0.000  1.00  0.00    -0.011 A 
HETATM    7  C   UNL     1       3.170   7.022   0.000  1.00  0.00     0.051 A 
HETATM    8  C   UNL     1       3.170   4.595   0.000  1.00  0.00     0.094 A 
HETATM    9  N   UNL     1       4.051   3.381   0.000  1.00  0.00    -0.173 NA
HETATM   10  C   UNL     1       4.051   5.808   0.000  1.00  0.00     0.017 A 
HETATM   11  C   UNL     1       5.478   5.345   0.000  1.00  0.00     0.064 A 
HETATM   12  N   UNL     1       5.478   3.845   0.000  1.00  0.00    -0.277 N 
HETATM   13  H   UNL     1       6.692   2.963   0.000  1.00  0.00     0.189 HD
ENDROOT
BRANCH  11  14
HETATM   14  C   UNL     1       6.692   6.226   0.000  1.00  0.00    -0.022 A 
HETATM   15  C   UNL     1       6.535   7.718   0.000  1.00  0.00     0.062 A 
HETATM   16  C   UNL     1       7.748   8.600   0.000  1.00  0.00     0.046 A 
HETATM   17 CL   UNL     1       7.591  10.091   0.000  1.00  0.00    -0.086 Cl
HETATM   18  C   UNL     1       9.119   7.989   0.000  1.00  0.00     0.043 A 
HETATM   19  C   UNL     1       9.275   6.498   0.000  1.00  0.00     0.043 A 
HETATM   20 CL   UNL     1      10.332   8.871   0.000  1.00  0.00    -0.086 Cl
HETATM   21  C   UNL     1       8.062   5.616   0.000  1.00  0.00     0.029 A 
ENDBRANCH  11  14
TORSDOF 1
