REMARK  6 active torsions:
REMARK  status: ('A' for Active; 'I' for Inactive)
REMARK    1  A    between atoms: C_1  and  N_23 
REMARK    2  A    between atoms: C_6  and  C_22 
REMARK    3  A    between atoms: C_8  and  C_22 
REMARK    4  A    between atoms: C_10  and  N_26 
REMARK    5  A    between atoms: C_14  and  C_22 
REMARK    6  A    between atoms: C_17  and  N_19 
ROOT
HETATM    1  C   UNL     1       0.460  -9.703   0.000  1.00  0.00    -0.024 C 
ENDROOT
BRANCH   1   2
HETATM    2  C   UNL     1       0.460  -8.203   0.000  1.00  0.00    -0.045 A 
HETATM    3  C   UNL     1       1.759  -7.453   0.000  1.00  0.00     0.028 A 
HETATM    4  C   UNL     1       1.759  -5.953   0.000  1.00  0.00     0.050 A 
HETATM    5  C   UNL     1       0.460  -5.203   0.000  1.00  0.00     0.083 A 
HETATM    6  C   UNL     1      -0.839  -5.953   0.000  1.00  0.00     0.050 A 
HETATM    7  C   UNL     1      -0.839  -7.453   0.000  1.00  0.00     0.028 A 
BRANCH   5   8
HETATM    8  N   UNL     1       0.460  -3.703   0.000  1.00  0.00    -0.122 N 
HETATM    9  O   UNL     1      -0.839  -2.953   0.000  1.00  0.00    -0.532 OA
HETATM   10  O   UNL     1       1.759  -2.953   0.000  1.00  0.00    -0.532 OA
ENDBRANCH   5   8
ENDBRANCH   1   2
BRANCH   1  11
HETATM   11  C   UNL     1       1.759 -10.453   0.000  1.00  0.00    -0.045 A 
HETATM   12  C   UNL     1       3.058  -9.703   0.000  1.00  0.00     0.028 A 
HETATM   13  C   UNL     1       4.357 -10.453   0.000  1.00  0.00     0.043 A 
HETATM   14  C   UNL     1       4.357 -11.953   0.000  1.00  0.00     0.011 A 
HETATM   15  C   UNL     1       3.058 -12.703   0.000  1.00  0.00     0.043 A 
HETATM   16  C   UNL     1       1.759 -11.953   0.000  1.00  0.00     0.028 A 
BRANCH  14  17
HETATM   17  N   UNL     1       5.656 -12.703   0.000  1.00  0.00    -0.351 N 
HETATM   18  C   UNL     1       6.955 -11.953   0.000  1.00  0.00     0.125 C 
HETATM   19  C   UNL     1       5.656 -14.203   0.000  1.00  0.00     0.125 C 
ENDBRANCH  14  17
ENDBRANCH   1  11
BRANCH   1  20
HETATM   20  C   UNL     1      -0.839 -10.453   0.000  1.00  0.00    -0.045 A 
HETATM   21  C   UNL     1      -2.138  -9.703   0.000  1.00  0.00     0.028 A 
HETATM   22  C   UNL     1      -3.437 -10.453   0.000  1.00  0.00     0.043 A 
HETATM   23  C   UNL     1      -3.437 -11.953   0.000  1.00  0.00     0.011 A 
HETATM   24  C   UNL     1      -2.138 -12.703   0.000  1.00  0.00     0.043 A 
HETATM   25  C   UNL     1      -0.839 -11.953   0.000  1.00  0.00     0.028 A 
BRANCH  23  26
HETATM   26  N   UNL     1      -4.736 -12.703   0.000  1.00  0.00    -0.351 N 
HETATM   27  C   UNL     1      -6.035 -11.953   0.000  1.00  0.00     0.125 C 
HETATM   28  C   UNL     1      -4.736 -14.203   0.000  1.00  0.00     0.125 C 
ENDBRANCH  23  26
ENDBRANCH   1  20
TORSDOF 6
