REMARK  1 active torsions:
REMARK  status: ('A' for Active; 'I' for Inactive)
REMARK    1  A    between atoms: N_5  and  C_6 
ROOT
HETATM    1  C   UNL     1       3.177   2.799   0.000  1.00  0.00     0.183 A 
HETATM    2  N   UNL     1       3.177   1.299   0.000  1.00  0.00    -0.146 NA
HETATM    3  C   UNL     1       4.604   3.263   0.000  1.00  0.00     0.176 A 
HETATM    4  N   UNL     1       4.604   0.836   0.000  1.00  0.00     0.012 NA
HETATM    5  N   UNL     1       5.485   2.049   0.000  1.00  0.00    -0.228 N 
HETATM    6  C   UNL     1       1.964   3.681   0.000  1.00  0.00     0.045 C 
HETATM    7  N   UNL     1       0.750   4.562   0.000  1.00  0.00    -0.094 N 
HETATM    8  N   UNL     1       5.067   4.689   0.000  1.00  0.00    -0.078 NA
ENDROOT
BRANCH   5   9
HETATM    9  C   UNL     1       6.985   2.049   0.000  1.00  0.00     0.036 A 
HETATM   10  C   UNL     1       7.735   3.348   0.000  1.00  0.00     0.046 A 
HETATM   11  C   UNL     1       9.235   3.348   0.000  1.00  0.00     0.040 A 
HETATM   12  C   UNL     1       9.985   2.049   0.000  1.00  0.00     0.014 A 
HETATM   13  C   UNL     1       9.235   0.750   0.000  1.00  0.00     0.040 A 
HETATM   14 CL   UNL     1      11.485   2.049   0.000  1.00  0.00    -0.092 Cl
HETATM   15  C   UNL     1       7.735   0.750   0.000  1.00  0.00     0.046 A 
ENDBRANCH   5   9
TORSDOF 1
