REMARK  3 active torsions:
REMARK  status: ('A' for Active; 'I' for Inactive)
REMARK    1  A    between atoms: C_6  and  C_16 
REMARK    2  A    between atoms: C_10  and  C_11 
REMARK       I    between atoms: C_10  and  N_17 
REMARK    3  A    between atoms: C_16  and  N_17 
ROOT
HETATM    1  C   UNL     1      -0.802  -0.985   0.000  1.00  0.00     0.157 C 
ENDROOT
BRANCH   1   2
HETATM    2  C   UNL     1      -2.179  -0.390   0.000  1.00  0.00     0.032 A 
HETATM    3  C   UNL     1      -2.352   1.100   0.000  1.00  0.00     0.116 A 
HETATM    4  C   UNL     1      -3.729   1.695   0.000  1.00  0.00     0.057 A 
HETATM    5  F   UNL     1      -1.148   1.995   0.000  1.00  0.00    -0.209 F 
HETATM    6  C   UNL     1      -4.932   0.800   0.000  1.00  0.00     0.013 A 
HETATM    7  C   UNL     1      -4.759  -0.690   0.000  1.00  0.00     0.038 A 
HETATM    8  C   UNL     1      -3.382  -1.285   0.000  1.00  0.00     0.035 A 
HETATM    9 CL   UNL     1      -3.209  -2.775   0.000  1.00  0.00    -0.087 Cl
ENDBRANCH   1   2
BRANCH   1  10
HETATM   10  N   UNL     1       0.402  -0.090   0.000  1.00  0.00    -0.241 NA
HETATM   11  C   UNL     1       1.655  -0.915   0.000  1.00  0.00     0.217 C 
HETATM   12  O   UNL     1       1.567  -2.412   0.000  1.00  0.00    -0.169 OA
BRANCH  11  13
HETATM   13  C   UNL     1       2.996  -0.243   0.000  1.00  0.00     0.101 A 
HETATM   14  S   UNL     1       4.328  -0.932   0.000  1.00  0.00     0.008 SA
HETATM   15  N   UNL     1       5.395   0.122   0.000  1.00  0.00    -0.036 NA
HETATM   16  N   UNL     1       4.723   1.462   0.000  1.00  0.00    -0.172 NA
HETATM   17  C   UNL     1       3.240   1.237   0.000  1.00  0.00     0.086 A 
HETATM   18  C   UNL     1       2.186   2.305   0.000  1.00  0.00     0.054 C 
ENDBRANCH  11  13
ENDBRANCH   1  10
TORSDOF 3
