REMARK  1 active torsions:
REMARK  status: ('A' for Active; 'I' for Inactive)
REMARK    1  A    between atoms: C_16  and  C_17 
ROOT
HETATM    1  C   UNL     1       0.750   7.500   0.000  1.00  0.00     0.005 A 
HETATM    2  C   UNL     1       0.750   6.000   0.000  1.00  0.00     0.026 A 
HETATM    3  C   UNL     1       0.750   3.000   0.000  1.00  0.00     0.026 A 
HETATM    4  C   UNL     1       0.750   1.500   0.000  1.00  0.00     0.005 A 
HETATM    5  C   UNL     1       2.049   5.250   0.000  1.00  0.00    -0.029 A 
HETATM    6  C   UNL     1       2.049   3.750   0.000  1.00  0.00    -0.029 A 
HETATM    7  C   UNL     1       2.049   8.250   0.000  1.00  0.00     0.005 A 
HETATM    8  C   UNL     1       2.049   0.750   0.000  1.00  0.00     0.005 A 
HETATM    9  C   UNL     1       3.348   6.000   0.000  1.00  0.00    -0.007 A 
HETATM   10  C   UNL     1       3.348   7.500   0.000  1.00  0.00     0.028 A 
HETATM   11  C   UNL     1       3.348   3.000   0.000  1.00  0.00    -0.007 A 
HETATM   12  C   UNL     1       3.348   1.500   0.000  1.00  0.00     0.028 A 
HETATM   13  C   UNL     1       4.647   3.750   0.000  1.00  0.00     0.096 A 
HETATM   14  C   UNL     1       4.647   5.250   0.000  1.00  0.00     0.096 A 
HETATM   15  N   UNL     1       6.074   5.713   0.000  1.00  0.00    -0.226 NA
HETATM   16  C   UNL     1       6.955   4.500   0.000  1.00  0.00     0.160 A 
HETATM   17  N   UNL     1       6.074   3.287   0.000  1.00  0.00    -0.226 NA
ENDROOT
BRANCH  16  18
HETATM   18  C   UNL     1       8.455   4.500   0.000  1.00  0.00     0.035 A 
HETATM   19  C   UNL     1       9.205   5.799   0.000  1.00  0.00     0.031 A 
HETATM   20  C   UNL     1      10.705   5.799   0.000  1.00  0.00     0.005 A 
HETATM   21  C   UNL     1      11.455   4.500   0.000  1.00  0.00     0.007 A 
HETATM   22  C   UNL     1      10.705   3.201   0.000  1.00  0.00     0.054 A 
HETATM   23  C   UNL     1       9.205   3.201   0.000  1.00  0.00     0.107 A 
HETATM   24  O   UNL     1       8.455   1.902   0.000  1.00  0.00    -0.195 OA
ENDBRANCH  16  18
TORSDOF 1
