REMARK  1 active torsions:
REMARK  status: ('A' for Active; 'I' for Inactive)
REMARK    1  A    between atoms: C_7  and  N_22 
ROOT
HETATM    1  N   UNL     1      -3.348  -0.750   0.000  1.00  0.00    -0.258 NA
HETATM    2  C   UNL     1      -5.946  -0.750   0.000  1.00  0.00     0.051 A 
HETATM    3  C   UNL     1      -7.245  -1.500   0.000  1.00  0.00     0.046 A 
HETATM    4  C   UNL     1      -4.647  -1.500   0.000  1.00  0.00     0.056 A 
HETATM    5  C   UNL     1      -4.647  -3.000   0.000  1.00  0.00     0.006 A 
HETATM    6  C   UNL     1      -7.245  -3.000   0.000  1.00  0.00     0.025 A 
HETATM    7  C   UNL     1      -5.946  -3.750   0.000  1.00  0.00     0.068 A 
HETATM    8  C   UNL     1      -3.348  -3.750   0.000  1.00  0.00     0.051 A 
HETATM    9  C   UNL     1      -2.049  -1.500   0.000  1.00  0.00     0.042 A 
HETATM   10  C   UNL     1      -2.049  -3.000   0.000  1.00  0.00     0.082 A 
HETATM   11  N   UNL     1      -3.348  -5.250   0.000  1.00  0.00    -0.105 NA
HETATM   12  C   UNL     1      -0.750  -0.750   0.000  1.00  0.00     0.048 C 
ENDROOT
BRANCH   6  13
HETATM   13  N   UNL     1      -8.544  -3.750   0.000  1.00  0.00    -0.300 N 
HETATM   14  C   UNL     1      -8.544  -5.250   0.000  1.00  0.00     0.174 A 
HETATM   15  C   UNL     1      -9.843  -6.000   0.000  1.00  0.00     0.078 A 
HETATM   16  O   UNL     1      -7.245  -6.000   0.000  1.00  0.00    -0.175 OA
HETATM   17  C   UNL     1     -11.142  -5.250   0.000  1.00  0.00     0.037 A 
HETATM   18  C   UNL     1     -11.142  -3.750   0.000  1.00  0.00    -0.003 A 
HETATM   19  C   UNL     1      -9.843  -3.000   0.000  1.00  0.00     0.039 A 
HETATM   20  C   UNL     1     -12.441  -3.000   0.000  1.00  0.00     0.033 A 
HETATM   21  C   UNL     1      -9.843  -1.500   0.000  1.00  0.00     0.044 A 
HETATM   22  C   UNL     1     -11.142  -0.750   0.000  1.00  0.00     0.012 A 
HETATM   23  C   UNL     1     -12.441  -1.500   0.000  1.00  0.00     0.038 A 
HETATM   24 CL   UNL     1     -13.740  -3.750   0.000  1.00  0.00    -0.087 Cl
ENDBRANCH   6  13
TORSDOF 1
