REMARK  5 active torsions:
REMARK  status: ('A' for Active; 'I' for Inactive)
REMARK    1  A    between atoms: C_3  and  N_21 
REMARK    2  A    between atoms: C_4  and  O_22 
REMARK    3  A    between atoms: C_8  and  N_18 
REMARK    4  A    between atoms: C_9  and  C_13 
REMARK       I    between atoms: N_18  and  C_19 
REMARK       I    between atoms: C_19  and  N_21 
REMARK    5  A    between atoms: O_22  and  C_23 
ROOT
HETATM    1  N   UNL     1       4.272  -0.101   0.000  1.00  0.00    -0.208 NA
HETATM    2  C   UNL     1       5.571  -0.851   0.000  1.00  0.00     0.299 C 
HETATM    3  O   UNL     1       5.571  -2.350   0.000  1.00  0.00    -0.147 OA
HETATM    4  N   UNL     1       6.870  -0.101   0.000  1.00  0.00    -0.212 NA
ENDROOT
BRANCH   1   5
HETATM    5  C   UNL     1       4.272   1.399   0.000  1.00  0.00     0.060 A 
HETATM    6  C   UNL     1       5.571   2.150   0.000  1.00  0.00     0.073 A 
HETATM    7  C   UNL     1       5.571   3.650   0.000  1.00  0.00    -0.003 A 
HETATM    8  C   UNL     1       4.272   4.399   0.000  1.00  0.00     0.108 A 
HETATM    9  C   UNL     1       2.973   3.650   0.000  1.00  0.00     0.077 A 
HETATM   10  O   UNL     1       4.272   5.899   0.000  1.00  0.00    -0.195 OA
HETATM   11  C   UNL     1       2.973   2.150   0.000  1.00  0.00    -0.023 A 
HETATM   12  C   UNL     1       1.674   1.399   0.000  1.00  0.00     0.028 C 
BRANCH   7  13
HETATM   13  C   UNL     1       6.870   4.399   0.000  1.00  0.00    -0.045 C 
HETATM   14  C   UNL     1       6.870   5.899   0.000  1.00  0.00     0.026 C 
HETATM   15  C   UNL     1       8.169   3.650   0.000  1.00  0.00     0.026 C 
ENDBRANCH   7  13
ENDBRANCH   1   5
BRANCH   4  16
HETATM   16  C   UNL     1       8.169  -0.851   0.000  1.00  0.00     0.041 A 
HETATM   17  C   UNL     1       9.468  -0.101   0.000  1.00  0.00     0.044 A 
HETATM   18  C   UNL     1      10.767  -0.851   0.000  1.00  0.00     0.036 A 
HETATM   19  C   UNL     1      10.767  -2.350   0.000  1.00  0.00     0.116 A 
HETATM   20  C   UNL     1       9.468  -3.100   0.000  1.00  0.00     0.036 A 
HETATM   21  C   UNL     1       8.169  -2.350   0.000  1.00  0.00     0.044 A 
BRANCH  19  22
HETATM   22  O   UNL     1      12.066  -3.100   0.000  1.00  0.00    -0.357 OA
BRANCH  22  23
HETATM   23  C   UNL     1      13.365  -2.350   0.000  1.00  0.00     0.142 C 
HETATM   24  C   UNL     1      14.664  -3.100   0.000  1.00  0.00     0.035 C 
ENDBRANCH  22  23
ENDBRANCH  19  22
ENDBRANCH   4  16
TORSDOF 5
