REMARK  0 active torsions:
REMARK  status: ('A' for Active; 'I' for Inactive)
ROOT
HETATM    1  C   UNL     1      -2.025   6.107   0.000  1.00  0.00     0.005 A 
HETATM    2  C   UNL     1      -2.025   4.607   0.000  1.00  0.00     0.005 A 
HETATM    3  C   UNL     1      -0.726   6.857   0.000  1.00  0.00     0.028 A 
HETATM    4  C   UNL     1      -0.726   3.857   0.000  1.00  0.00     0.030 A 
HETATM    5  C   UNL     1       0.573   6.107   0.000  1.00  0.00    -0.007 A 
HETATM    6  C   UNL     1       0.573   4.607   0.000  1.00  0.00     0.017 A 
HETATM    7  C   UNL     1       2.000   4.143   0.000  1.00  0.00     0.190 A 
HETATM    8  O   UNL     1       2.463   2.717   0.000  1.00  0.00    -0.171 OA
HETATM    9  C   UNL     1       2.000   6.570   0.000  1.00  0.00     0.062 A 
HETATM   10  N   UNL     1       2.881   5.357   0.000  1.00  0.00    -0.307 N 
HETATM   11  C   UNL     1       2.610   7.941   0.000  1.00  0.00     0.076 A 
HETATM   12  C   UNL     1       4.373   5.514   0.000  1.00  0.00     0.115 A 
HETATM   13  C   UNL     1       2.000   9.311   0.000  1.00  0.00     0.235 A 
HETATM   14  C   UNL     1       4.983   6.884   0.000  1.00  0.00     0.072 A 
HETATM   15  C   UNL     1       4.102   8.098   0.000  1.00  0.00     0.087 A 
HETATM   16  N   UNL     1       4.414   9.565   0.000  1.00  0.00    -0.150 NA
HETATM   17  N   UNL     1       3.115  10.315   0.000  1.00  0.00    -0.120 NA
HETATM   18  O   UNL     1       0.533   9.623   0.000  1.00  0.00    -0.167 OA
ENDROOT
TORSDOF 0
