REMARK  4 active torsions:
REMARK  status: ('A' for Active; 'I' for Inactive)
REMARK    1  A    between atoms: C_5  and  N_17 
REMARK    2  A    between atoms: C_13  and  C_15 
REMARK    3  A    between atoms: C_14  and  N_17 
REMARK    4  A    between atoms: C_20  and  C_22 
ROOT
HETATM    1  N   UNL     1      -2.811   0.978   0.000  1.00  0.00    -0.253 NA
HETATM    2  C   UNL     1      -4.166   0.335   0.000  1.00  0.00     0.128 A 
HETATM    3  C   UNL     1      -4.286  -1.160   0.000  1.00  0.00     0.031 A 
HETATM    4  C   UNL     1      -3.051  -2.012   0.000  1.00  0.00     0.036 A 
HETATM    5  C   UNL     1      -1.697  -1.368   0.000  1.00  0.00     0.062 A 
HETATM    6  C   UNL     1      -1.576   0.127   0.000  1.00  0.00     0.158 A 
ENDROOT
BRANCH   6   7
HETATM    7  N   UNL     1      -0.221   0.770   0.000  1.00  0.00    -0.232 NA
BRANCH   7   8
HETATM    8  C   UNL     1      -0.101   2.265   0.000  1.00  0.00     0.057 A 
HETATM    9  C   UNL     1       1.254   2.909   0.000  1.00  0.00    -0.002 A 
HETATM   10  C   UNL     1       1.374   4.404   0.000  1.00  0.00     0.033 A 
HETATM   11  C   UNL     1       2.489   2.057   0.000  1.00  0.00     0.033 C 
HETATM   12 CL   UNL     1       2.729   5.048   0.000  1.00  0.00    -0.087 Cl
HETATM   13  C   UNL     1       0.139   5.256   0.000  1.00  0.00     0.038 A 
HETATM   14  C   UNL     1      -1.216   4.612   0.000  1.00  0.00     0.012 A 
HETATM   15  C   UNL     1      -1.336   3.117   0.000  1.00  0.00     0.046 A 
ENDBRANCH   7   8
ENDBRANCH   6   7
BRANCH   5  16
HETATM   16  C   UNL     1      -0.462  -2.220   0.000  1.00  0.00     0.227 A 
HETATM   17  O   UNL     1      -0.582  -3.715   0.000  1.00  0.00    -0.306 OA
HETATM   18  C   UNL     1       0.653  -4.567   0.000  1.00  0.00     0.187 A 
HETATM   19  C   UNL     1       2.008  -3.924   0.000  1.00  0.00     0.216 A 
HETATM   20  O   UNL     1       2.128  -2.428   0.000  1.00  0.00    -0.211 OA
HETATM   21  O   UNL     1       0.893  -1.577   0.000  1.00  0.00    -0.170 OA
BRANCH  19  22
HETATM   22  C   UNL     1       3.243  -4.775   0.000  1.00  0.00     0.218 C 
HETATM   23  O   UNL     1       4.597  -4.132   0.000  1.00  0.00    -0.218 OA
ENDBRANCH  19  22
ENDBRANCH   5  16
TORSDOF 4
