REMARK  1 active torsions:
REMARK  status: ('A' for Active; 'I' for Inactive)
REMARK    1  A    between atoms: C_13  and  C_24 
ROOT
HETATM    1  N   UNL     1       4.101   6.234   0.000  1.00  0.00    -0.327 N 
HETATM    2  O   UNL     1       6.699   4.734   0.000  1.00  0.00    -0.328 OA
HETATM    3  C   UNL     1      10.596   6.984   0.000  1.00  0.00     0.005 A 
HETATM    4  C   UNL     1      10.596   8.484   0.000  1.00  0.00     0.005 A 
HETATM    5  C   UNL     1       9.297   6.234   0.000  1.00  0.00     0.028 A 
HETATM    6  C   UNL     1       7.998   6.984   0.000  1.00  0.00    -0.006 A 
HETATM    7  C   UNL     1       9.297   9.234   0.000  1.00  0.00     0.022 A 
HETATM    8  C   UNL     1       7.998   8.484   0.000  1.00  0.00    -0.042 A 
HETATM    9  C   UNL     1       5.400   6.984   0.000  1.00  0.00     0.080 A 
HETATM   10  C   UNL     1       6.699   6.234   0.000  1.00  0.00     0.105 A 
HETATM   11  C   UNL     1       4.101   4.734   0.000  1.00  0.00     0.139 A 
HETATM   12  C   UNL     1       5.400   3.984   0.000  1.00  0.00     0.173 A 
HETATM   13  C   UNL     1       6.699   9.234   0.000  1.00  0.00     0.051 A 
HETATM   14  C   UNL     1       5.400   8.484   0.000  1.00  0.00     0.021 A 
HETATM   15  C   UNL     1       4.101   9.234   0.000  1.00  0.00     0.112 A 
HETATM   16  O   UNL     1       4.101  10.734   0.000  1.00  0.00    -0.195 OA
HETATM   17  C   UNL     1       2.802   8.484   0.000  1.00  0.00     0.097 A 
HETATM   18  C   UNL     1       2.802   6.984   0.000  1.00  0.00     0.036 A 
ENDROOT
BRANCH  18  19
HETATM   19  C   UNL     1       1.503   6.234   0.000  1.00  0.00    -0.032 A 
HETATM   20  C   UNL     1       0.204   6.984   0.000  1.00  0.00     0.023 A 
HETATM   21  C   UNL     1      -1.095   6.234   0.000  1.00  0.00     0.004 A 
HETATM   22  C   UNL     1      -1.095   4.734   0.000  1.00  0.00     0.001 A 
HETATM   23  C   UNL     1       0.204   3.984   0.000  1.00  0.00     0.004 A 
HETATM   24  C   UNL     1       1.503   4.734   0.000  1.00  0.00     0.023 A 
ENDBRANCH  18  19
TORSDOF 1
