REMARK  4 active torsions:
REMARK  status: ('A' for Active; 'I' for Inactive)
REMARK    1  A    between atoms: C_4  and  C_6 
REMARK    2  A    between atoms: C_5  and  C_26 
REMARK    3  A    between atoms: C_18  and  C_26 
REMARK    4  A    between atoms: C_21  and  N_23 
ROOT
HETATM    1  O   UNL     1       3.807  -5.093   0.000  1.00  0.00    -0.164 OA
HETATM    2  O   UNL     1       6.302  -6.051   0.000  1.00  0.00    -0.289 OA
HETATM    3  C   UNL     1       7.516  -3.949   0.000  1.00  0.00     0.077 A 
HETATM    4  C   UNL     1       7.672  -5.441   0.000  1.00  0.00     0.076 A 
HETATM    5  C   UNL     1       6.048  -3.637   0.000  1.00  0.00     0.011 A 
HETATM    6  C   UNL     1       5.298  -4.936   0.000  1.00  0.00     0.225 A 
ENDROOT
BRANCH   4   7
HETATM    7  C   UNL     1       8.971  -6.191   0.000  1.00  0.00    -0.021 A 
HETATM    8  C   UNL     1      10.270  -5.441   0.000  1.00  0.00     0.045 A 
HETATM    9  C   UNL     1      11.569  -6.191   0.000  1.00  0.00    -0.048 A 
HETATM   10  C   UNL     1      12.868  -5.441   0.000  1.00  0.00     0.022 A 
HETATM   11  C   UNL     1      11.569  -7.691   0.000  1.00  0.00    -0.051 A 
HETATM   12  C   UNL     1      14.167  -6.191   0.000  1.00  0.00     0.005 A 
HETATM   13  C   UNL     1      14.168  -7.691   0.000  1.00  0.00     0.005 A 
HETATM   14  C   UNL     1      12.868  -8.441   0.000  1.00  0.00     0.021 A 
HETATM   15  C   UNL     1      10.270  -8.441   0.000  1.00  0.00     0.026 A 
HETATM   16  C   UNL     1       8.971  -7.691   0.000  1.00  0.00     0.028 A 
ENDBRANCH   4   7
BRANCH   5  17
HETATM   17  C   UNL     1       5.438  -2.267   0.000  1.00  0.00     0.027 C 
BRANCH  17  18
HETATM   18  C   UNL     1       3.946  -2.110   0.000  1.00  0.00     0.005 A 
HETATM   19  C   UNL     1       3.336  -0.740   0.000  1.00  0.00     0.006 A 
HETATM   20  C   UNL     1       1.845  -0.583   0.000  1.00  0.00     0.039 A 
HETATM   21  C   UNL     1       0.963  -1.796   0.000  1.00  0.00     0.010 A 
HETATM   22  C   UNL     1       1.573  -3.167   0.000  1.00  0.00     0.039 A 
HETATM   23  C   UNL     1       3.065  -3.324   0.000  1.00  0.00     0.006 A 
BRANCH  21  24
HETATM   24  N   UNL     1      -0.529  -1.640   0.000  1.00  0.00    -0.351 N 
HETATM   25  C   UNL     1      -1.139  -0.269   0.000  1.00  0.00     0.125 C 
HETATM   26  C   UNL     1      -1.411  -2.853   0.000  1.00  0.00     0.125 C 
ENDBRANCH  21  24
ENDBRANCH  17  18
ENDBRANCH   5  17
TORSDOF 4
