REMARK  1 active torsions:
REMARK  status: ('A' for Active; 'I' for Inactive)
REMARK    1  A    between atoms: C_19  and  O_33 
ROOT
HETATM    1  O   UNK A   0       5.486   6.232   0.000  1.00  0.00     0.000 OA
HETATM    2  C   UNK A   0       3.986   6.232   0.000  1.00  0.00     0.199 A 
HETATM    3  O   UNK A   0       3.236   7.532   0.000  1.00  0.00    -0.339 OA
HETATM    4  C   UNK A   0       5.486   8.831   0.000  1.00  0.00     0.030 A 
HETATM    5  C   UNK A   0       4.736   7.532   0.000  1.00  0.00     0.119 A 
HETATM    6  C   UNK A   0       5.486   6.232   0.000  1.00  0.00     0.072 A 
HETATM    7  C   UNK A   0       6.986   6.232   0.000  1.00  0.00     0.009 A 
HETATM    8  C   UNK A   0       7.736   7.532   0.000  1.00  0.00     0.000 A 
HETATM    9  C   UNK A   0       6.986   8.831   0.000  1.00  0.00     0.003 A 
HETATM   10  C   UNK A   0       6.236   7.532   0.000  1.00  0.00     0.034 A 
ATOM     11  O   LEU A   1       6.236   4.933   0.000  1.00  0.00     0.000 OA
ATOM     12  C   LEU A   1       5.486   3.634   0.000  1.00  0.00     0.090 A 
ATOM     13  CD1 LEU A   1       3.236  -0.263   0.000  1.00  0.00     0.002 C 
ATOM     14  N   LEU A   1       3.236   4.933   0.000  1.00  0.00    -0.248 NA
ATOM     15  CB  LEU A   1       3.236   2.335   0.000  1.00  0.00     0.049 A 
ATOM     16  CG  LEU A   1       3.986   1.036   0.000  1.00  0.00     0.029 A 
ATOM     17  CA  LEU A   1       3.986   3.634   0.000  1.00  0.00     0.073 A 
ATOM     18  CD2 LEU A   1       5.486   1.036   0.000  1.00  0.00     0.106 A 
ATOM     19  CD1 TRP A   2      10.620   2.645   0.000  1.00  0.00     0.157 A 
ATOM     20  NE1 TRP A   2      12.106   2.436   0.000  1.00  0.00    -0.338 N 
ATOM     21  HE1 TRP A   2      13.148   3.515   0.000  1.00  0.00     0.168 HD
ATOM     22  CG  TRP A   2       9.963   1.297   0.000  1.00  0.00     0.020 A 
ATOM     23  CD2 TRP A   2      11.042   0.255   0.000  1.00  0.00    -0.011 A 
ATOM     24  CE2 TRP A   2      12.366   0.959   0.000  1.00  0.00     0.031 A 
ATOM     25  CE3 TRP A   2      10.990  -1.244   0.000  1.00  0.00     0.027 A 
ATOM     26  CZ2 TRP A   2      13.639   0.164   0.000  1.00  0.00     0.043 A 
ATOM     27  CH2 TRP A   2      13.586  -1.335   0.000  1.00  0.00     0.007 A 
ATOM     28  CZ3 TRP A   2      12.262  -2.039   0.000  1.00  0.00     0.005 A 
ATOM     29  N   TRP A   2       6.236   2.335   0.000  1.00  0.00    -0.327 N 
ATOM     30  CA  TRP A   2       7.736   2.335   0.000  1.00  0.00     0.067 A 
ATOM     31  CB  TRP A   2       8.486   1.036   0.000  1.00  0.00     0.075 A 
ATOM     32  C   TRP A   2       8.486   3.634   0.000  1.00  0.00     0.137 A 
ATOM     33  O   TRP A   2       7.736   4.933   0.000  1.00  0.00     0.000 OA
ATOM     34  OXT TRP A   2       9.986   3.634   0.000  1.00  0.00    -0.288 OA
ENDROOT
TORSDOF 1
