REMARK  2 active torsions:
REMARK  status: ('A' for Active; 'I' for Inactive)
REMARK    1  A    between atoms: C_7  and  C_20 
REMARK    2  A    between atoms: C_11  and  N_15 
ROOT
HETATM    1  C   UNL     1       4.647  -4.500   0.000  1.00  0.00     0.064 A 
HETATM    2  C   UNL     1       3.348  -5.250   0.000  1.00  0.00     0.106 A 
HETATM    3  C   UNL     1       5.946  -5.250   0.000  1.00  0.00     0.047 A 
HETATM    4  C   UNL     1       5.946  -6.750   0.000  1.00  0.00     0.011 A 
HETATM    5  C   UNL     1       3.348  -6.750   0.000  1.00  0.00     0.040 A 
HETATM    6  C   UNL     1       4.647  -7.500   0.000  1.00  0.00     0.032 A 
HETATM    7  N   UNL     1       4.647  -3.000   0.000  1.00  0.00    -0.296 N 
HETATM    8  C   UNL     1       3.348  -2.250   0.000  1.00  0.00     0.205 A 
HETATM    9  O   UNL     1       3.348  -0.750   0.000  1.00  0.00    -0.173 OA
HETATM   10  C   UNL     1       2.049  -3.000   0.000  1.00  0.00     0.221 A 
HETATM   11  O   UNL     1       2.049  -4.500   0.000  1.00  0.00    -0.321 OA
ENDROOT
BRANCH   7  12
HETATM   12  C   UNL     1       5.796  -2.036   0.000  1.00  0.00     0.026 A 
HETATM   13  C   UNL     1       7.206  -2.549   0.000  1.00  0.00     0.078 A 
HETATM   14  C   UNL     1       8.355  -1.585   0.000  1.00  0.00     0.048 A 
HETATM   15 CL   UNL     1       9.764  -2.098   0.000  1.00  0.00    -0.086 Cl
HETATM   16  C   UNL     1       8.094  -0.107   0.000  1.00  0.00     0.043 A 
HETATM   17 CL   UNL     1       9.243   0.857   0.000  1.00  0.00    -0.086 Cl
HETATM   18  C   UNL     1       6.685   0.406   0.000  1.00  0.00     0.044 A 
HETATM   19  C   UNL     1       5.536  -0.559   0.000  1.00  0.00     0.046 A 
ENDBRANCH   7  12
BRANCH   5  20
HETATM   20  C   UNL     1       2.049  -7.500   0.000  1.00  0.00     0.198 C 
HETATM   21  O   UNL     1       2.049  -9.000   0.000  1.00  0.00    -0.175 OA
HETATM   22  N   UNL     1       0.750  -6.750   0.000  1.00  0.00    -0.071 NA
ENDBRANCH   5  20
TORSDOF 2
