REMARK  2 active torsions:
REMARK  status: ('A' for Active; 'I' for Inactive)
REMARK    1  A    between atoms: C_5  and  N_8 
REMARK    2  A    between atoms: C_10  and  C_21 
ROOT
HETATM    1  N   UNL     1       2.662   7.270   0.000  1.00  0.00    -0.241 N 
HETATM    2  N   UNL     1       1.697   6.121   0.000  1.00  0.00    -0.165 NA
HETATM    3  C   UNL     1       3.961   6.520   0.000  1.00  0.00     0.057 A 
HETATM    4  C   UNL     1       5.260   7.270   0.000  1.00  0.00     0.046 A 
HETATM    5  C   UNL     1       6.559   6.520   0.000  1.00  0.00     0.007 A 
HETATM    6  C   UNL     1       6.559   5.020   0.000  1.00  0.00     0.005 A 
HETATM    7  C   UNL     1       5.260   4.270   0.000  1.00  0.00     0.029 A 
HETATM    8  C   UNL     1       3.961   5.020   0.000  1.00  0.00     0.012 A 
HETATM    9  C   UNL     1       2.211   4.711   0.000  1.00  0.00     0.117 A 
ENDROOT
BRANCH   1  10
HETATM   10  C   UNL     1       2.662   8.770   0.000  1.00  0.00     0.055 A 
HETATM   11  C   UNL     1       1.448   9.652   0.000  1.00  0.00     0.059 A 
HETATM   12  C   UNL     1       1.912  11.078   0.000  1.00  0.00     0.129 A 
HETATM   13  S   UNL     1       3.412  11.078   0.000  1.00  0.00     0.176 S 
HETATM   14  O   UNL     1       3.255  12.570   0.000  1.00  0.00    -0.226 OA
HETATM   15  C   UNL     1       3.875   9.652   0.000  1.00  0.00     0.164 A 
HETATM   16  O   UNL     1       4.879  11.390   0.000  1.00  0.00    -0.226 OA
ENDBRANCH   1  10
BRANCH   9  17
HETATM   17  C   UNL     1       1.246   3.562   0.000  1.00  0.00     0.091 A 
HETATM   18  C   UNL     1      -0.250   3.667   0.000  1.00  0.00     0.055 A 
HETATM   19  C   UNL     1      -0.812   2.276   0.000  1.00  0.00     0.040 A 
HETATM   20  C   UNL     1       0.337   1.312   0.000  1.00  0.00     0.149 A 
HETATM   21  O   UNL     1       1.609   2.107   0.000  1.00  0.00    -0.334 OA
ENDBRANCH   9  17
TORSDOF 2
