REMARK  8 active torsions:
REMARK  status: ('A' for Active; 'I' for Inactive)
REMARK    1  A    between atoms: C_6  and  N_18 
REMARK    2  A    between atoms: O_8  and  C_9 
REMARK    3  A    between atoms: O_8  and  C_21 
REMARK    4  A    between atoms: C_14  and  N_22 
REMARK    5  A    between atoms: N_18  and  C_19 
REMARK    6  A    between atoms: C_19  and  C_20 
REMARK    7  A    between atoms: C_20  and  C_21 
REMARK    8  A    between atoms: C_25  and  S_27 
ROOT
HETATM    1  S   UNL     2      -4.798  11.777   0.000  1.00  0.00     0.116 S 
HETATM    2  O   UNL     2      -6.298  11.777   0.000  1.00  0.00    -0.594 OA
HETATM    3  O   UNL     2      -3.299  11.777   0.000  1.00  0.00    -0.594 OA
HETATM    4  O   UNL     2      -4.798  10.277   0.000  1.00  0.00    -0.594 OA
ENDROOT
BRANCH   1   5
HETATM    5  C   UNL     2      -4.798  13.277   0.000  1.00  0.00     0.146 C 
HETATM    6  C   UNL     2      -3.499  14.027   0.000  1.00  0.00     0.021 C 
ENDBRANCH   1   5
TORSDOF 8
