REMARK  0 active torsions:
REMARK  status: ('A' for Active; 'I' for Inactive)
ROOT
HETATM    1  C   UNL     1       3.623   4.774   0.000  1.00  0.00     0.005 A 
HETATM    2  C   UNL     1       3.623   3.275   0.000  1.00  0.00     0.027 A 
HETATM    3  C   UNL     1       4.922   5.524   0.000  1.00  0.00     0.007 A 
HETATM    4  C   UNL     1       4.922   2.525   0.000  1.00  0.00    -0.016 A 
HETATM    5  C   UNL     1       6.221   4.774   0.000  1.00  0.00     0.046 A 
HETATM    6  C   UNL     1       6.221   3.275   0.000  1.00  0.00     0.057 A 
HETATM    7  C   UNL     1       8.819   3.275   0.000  1.00  0.00     0.257 A 
HETATM    8  O   UNL     1       8.819   4.774   0.000  1.00  0.00    -0.165 OA
HETATM    9  C   UNL     1      10.118   2.525   0.000  1.00  0.00     0.257 A 
HETATM   10  O   UNL     1      11.417   3.275   0.000  1.00  0.00    -0.165 OA
HETATM   11  C   UNL     1      12.716   1.024   0.000  1.00  0.00     0.046 A 
HETATM   12  C   UNL     1      11.417   0.275   0.000  1.00  0.00     0.057 A 
HETATM   13  C   UNL     1      11.417  -1.226   0.000  1.00  0.00    -0.016 A 
HETATM   14  C   UNL     1      14.015   0.275   0.000  1.00  0.00     0.007 A 
HETATM   15  C   UNL     1      14.015  -1.226   0.000  1.00  0.00     0.005 A 
HETATM   16  C   UNL     1      12.716  -1.976   0.000  1.00  0.00     0.027 A 
HETATM   17  C   UNL     1       4.922   1.024   0.000  1.00  0.00    -0.043 A 
HETATM   18  C   UNL     1       6.221   0.275   0.000  1.00  0.00     0.043 A 
HETATM   19  C   UNL     1       6.221  -1.226   0.000  1.00  0.00    -0.048 A 
HETATM   20  C   UNL     1       4.922  -1.976   0.000  1.00  0.00     0.022 A 
HETATM   21  C   UNL     1       3.623  -1.226   0.000  1.00  0.00     0.009 A 
HETATM   22  C   UNL     1       3.623   0.275   0.000  1.00  0.00     0.022 A 
HETATM   23  N   UNL     1       7.520   2.525   0.000  1.00  0.00    -0.222 NA
HETATM   24  N   UNL     1      10.118   1.024   0.000  1.00  0.00    -0.222 NA
HETATM   25  C   UNL     1      10.118  -1.976   0.000  1.00  0.00    -0.043 A 
HETATM   26  C   UNL     1      10.118  -3.475   0.000  1.00  0.00     0.022 A 
HETATM   27  C   UNL     1       8.819  -4.226   0.000  1.00  0.00     0.009 A 
HETATM   28  C   UNL     1       7.520  -3.475   0.000  1.00  0.00     0.022 A 
HETATM   29  C   UNL     1       7.520  -1.976   0.000  1.00  0.00    -0.048 A 
HETATM   30  C   UNL     1       8.819  -1.226   0.000  1.00  0.00     0.043 A 
ENDROOT
TORSDOF 0
