REMARK  3 active torsions:
REMARK  status: ('A' for Active; 'I' for Inactive)
REMARK    1  A    between atoms: C_6  and  N_7 
REMARK    2  A    between atoms: N_7  and  N_8 
REMARK    3  A    between atoms: N_8  and  C_9 
ROOT
HETATM    1  C   UNL     1       3.580  -3.200   0.000  1.00  0.00     0.106 A 
HETATM    2  C   UNL     1       3.580  -4.700   0.000  1.00  0.00     0.054 A 
HETATM    3  C   UNL     1       4.879  -2.450   0.000  1.00  0.00     0.142 A 
HETATM    4  C   UNL     1       4.879  -5.450   0.000  1.00  0.00     0.028 A 
HETATM    5  C   UNL     1       6.178  -4.700   0.000  1.00  0.00    -0.046 A 
HETATM    6  C   UNL     1       6.178  -3.200   0.000  1.00  0.00    -0.003 A 
HETATM    7  C   UNL     1       7.477  -2.450   0.000  1.00  0.00     0.028 A 
HETATM    8  C   UNL     1       7.477  -5.450   0.000  1.00  0.00     0.022 A 
HETATM    9  C   UNL     1       8.776  -3.200   0.000  1.00  0.00     0.005 A 
HETATM   10  C   UNL     1       8.776  -4.700   0.000  1.00  0.00     0.005 A 
HETATM   11  O   UNL     1       4.879  -0.951   0.000  1.00  0.00    -0.189 OA
ENDROOT
BRANCH   1  12
HETATM   12  N   UNL     1       2.281  -2.450   0.000  1.00  0.00    -0.135 NA
BRANCH  12  13
HETATM   13  N   UNL     1       0.982  -3.200   0.000  1.00  0.00     0.046 NA
BRANCH  13  14
HETATM   14  C   UNL     1      -0.317  -2.450   0.000  1.00  0.00     0.772 A 
HETATM   15  N   UNL     1      -0.474  -0.959   0.000  1.00  0.00    -0.112 N 
HETATM   16  N   UNL     1      -1.941  -0.647   0.000  1.00  0.00     0.009 NA
HETATM   17  H   UNL     1       0.641   0.045   0.000  1.00  0.00     0.203 HD
HETATM   18  N   UNL     1      -2.691  -1.946   0.000  1.00  0.00     0.033 NA
HETATM   19  N   UNL     1      -1.688  -3.061   0.000  1.00  0.00     0.033 NA
ENDBRANCH  13  14
ENDBRANCH  12  13
ENDBRANCH   1  12
TORSDOF 3
