REMARK  1 active torsions:
REMARK  status: ('A' for Active; 'I' for Inactive)
REMARK    1  A    between atoms: C_7  and  C_8 
ROOT
HETATM    1 CL   UNL     1       0.750   3.750   0.000  1.00  0.00    -0.064 Cl
HETATM    2  C   UNL     1       2.049   3.000   0.000  1.00  0.00     0.142 A 
HETATM    3  N   UNL     1       2.049   1.500   0.000  1.00  0.00    -0.139 NA
HETATM    4  C   UNL     1       3.348   3.750   0.000  1.00  0.00     0.096 A 
HETATM    5  N   UNL     1       3.348   0.750   0.000  1.00  0.00    -0.120 NA
HETATM    6  C   UNL     1       4.647   1.500   0.000  1.00  0.00     0.235 A 
HETATM    7  C   UNL     1       4.647   3.000   0.000  1.00  0.00     0.094 A 
HETATM    8  O   UNL     1       5.946   0.750   0.000  1.00  0.00    -0.168 OA
ENDROOT
BRANCH   7   9
HETATM    9  C   UNL     1       5.946   3.750   0.000  1.00  0.00     0.211 C 
HETATM   10  O   UNL     1       5.946   5.250   0.000  1.00  0.00    -0.644 OA
HETATM   11  O   UNL     1       7.245   3.000   0.000  1.00  0.00    -0.644 OA
ENDBRANCH   7   9
TORSDOF 1
