REMARK  7 active torsions:
REMARK  status: ('A' for Active; 'I' for Inactive)
REMARK    1  A    between atoms: C_3  and  C_6 
REMARK    2  A    between atoms: C_10  and  C_11 
REMARK    3  A    between atoms: C_11  and  C_21 
REMARK    4  A    between atoms: C_12  and  C_21 
REMARK    5  A    between atoms: C_17  and  N_18 
REMARK    6  A    between atoms: N_18  and  C_23 
REMARK    7  A    between atoms: C_23  and  C_24 
ROOT
HETATM    1  C   UNL     1       6.750   4.647   0.000  1.00  0.00     0.025 C 
HETATM    2  C   UNL     1       7.500   5.946   0.000  1.00  0.00     0.016 C 
HETATM    3  N   UNL     1       8.250   7.245   0.000  1.00  0.00    -0.096 N 
ENDROOT
BRANCH   1   4
HETATM    4  C   UNL     1       5.250   4.647   0.000  1.00  0.00    -0.039 A 
HETATM    5  C   UNL     1       4.500   3.348   0.000  1.00  0.00     0.031 A 
HETATM    6  C   UNL     1       3.000   3.348   0.000  1.00  0.00     0.099 A 
HETATM    7  C   UNL     1       2.250   4.647   0.000  1.00  0.00     0.009 A 
HETATM    8  C   UNL     1       3.000   5.946   0.000  1.00  0.00     0.005 A 
HETATM    9  C   UNL     1       4.500   5.946   0.000  1.00  0.00     0.022 A 
BRANCH   6  10
HETATM   10  C   UNL     1       2.250   2.049   0.000  1.00  0.00     0.398 C 
HETATM   11  F   UNL     1       0.750   2.049   0.000  1.00  0.00    -0.170 F 
HETATM   12  F   UNL     1       3.000   0.750   0.000  1.00  0.00    -0.170 F 
HETATM   13  F   UNL     1       1.500   0.750   0.000  1.00  0.00    -0.170 F 
ENDBRANCH   6  10
ENDBRANCH   1   4
BRANCH   1  14
HETATM   14  C   UNL     1       7.500   3.348   0.000  1.00  0.00     0.035 C 
BRANCH  14  15
HETATM   15  C   UNL     1       9.000   3.348   0.000  1.00  0.00     0.006 A 
HETATM   16  C   UNL     1       9.750   4.647   0.000  1.00  0.00     0.006 A 
HETATM   17  C   UNL     1      11.250   4.647   0.000  1.00  0.00     0.039 A 
HETATM   18  C   UNL     1      12.000   3.348   0.000  1.00  0.00     0.010 A 
HETATM   19  C   UNL     1      11.250   2.049   0.000  1.00  0.00     0.039 A 
HETATM   20  C   UNL     1       9.750   2.049   0.000  1.00  0.00     0.006 A 
BRANCH  18  21
HETATM   21  N   UNL     1      13.500   3.348   0.000  1.00  0.00    -0.352 N 
HETATM   22  C   UNL     1      14.250   4.647   0.000  1.00  0.00     0.125 C 
BRANCH  21  23
HETATM   23  C   UNL     1      14.250   2.049   0.000  1.00  0.00     0.116 C 
BRANCH  23  24
HETATM   24  C   UNL     1      15.750   2.049   0.000  1.00  0.00     0.114 C 
HETATM   25  C   UNL     1      16.500   3.348   0.000  1.00  0.00    -0.004 C 
HETATM   26  N   UNL     1      17.250   4.647   0.000  1.00  0.00    -0.101 N 
ENDBRANCH  23  24
ENDBRANCH  21  23
ENDBRANCH  18  21
ENDBRANCH  14  15
ENDBRANCH   1  14
TORSDOF 7
