REMARK  4 active torsions:
REMARK  status: ('A' for Active; 'I' for Inactive)
REMARK    1  A    between atoms: C_6  and  C_7 
REMARK       I    between atoms: C_7  and  N_23 
REMARK    2  A    between atoms: C_9  and  N_23 
REMARK    3  A    between atoms: C_14  and  N_24 
REMARK    4  A    between atoms: C_15  and  C_17 
REMARK       I    between atoms: C_15  and  N_24 
ROOT
HETATM    1  C   UNL     1       7.500   2.049   0.000  1.00  0.00     0.040 A 
HETATM    2  C   UNL     1       8.250   0.750   0.000  1.00  0.00     0.047 A 
HETATM    3  C   UNL     1       8.250   3.348   0.000  1.00  0.00     0.047 A 
HETATM    4  C   UNL     1       9.750   3.348   0.000  1.00  0.00     0.047 A 
HETATM    5  C   UNL     1       9.750   0.750   0.000  1.00  0.00     0.047 A 
HETATM    6  C   UNL     1      10.500   2.049   0.000  1.00  0.00     0.040 A 
ENDROOT
BRANCH   1   7
HETATM    7  N   UNL     1       6.000   2.049   0.000  1.00  0.00    -0.229 NA
HETATM    8  C   UNL     1       5.250   3.348   0.000  1.00  0.00     0.204 C 
HETATM    9  O   UNL     1       6.000   4.647   0.000  1.00  0.00    -0.170 OA
BRANCH   8  10
HETATM   10  C   UNL     1       3.750   3.348   0.000  1.00  0.00     0.004 A 
HETATM   11  C   UNL     1       3.000   4.647   0.000  1.00  0.00     0.052 A 
HETATM   12  C   UNL     1       1.500   4.647   0.000  1.00  0.00     0.124 A 
HETATM   13  N   UNL     1       0.750   3.348   0.000  1.00  0.00    -0.295 NA
HETATM   14  C   UNL     1       1.500   2.049   0.000  1.00  0.00     0.124 A 
HETATM   15  C   UNL     1       3.000   2.049   0.000  1.00  0.00     0.052 A 
ENDBRANCH   8  10
ENDBRANCH   1   7
BRANCH   6  16
HETATM   16  N   UNL     1      12.000   2.049   0.000  1.00  0.00    -0.229 NA
HETATM   17  C   UNL     1      12.750   3.348   0.000  1.00  0.00     0.204 C 
HETATM   18  O   UNL     1      12.000   4.647   0.000  1.00  0.00    -0.170 OA
BRANCH  17  19
HETATM   19  C   UNL     1      14.250   3.348   0.000  1.00  0.00     0.004 A 
HETATM   20  C   UNL     1      15.000   4.647   0.000  1.00  0.00     0.052 A 
HETATM   21  C   UNL     1      16.500   4.647   0.000  1.00  0.00     0.124 A 
HETATM   22  N   UNL     1      17.250   3.348   0.000  1.00  0.00    -0.295 NA
HETATM   23  C   UNL     1      16.500   2.049   0.000  1.00  0.00     0.124 A 
HETATM   24  C   UNL     1      15.000   2.049   0.000  1.00  0.00     0.052 A 
ENDBRANCH  17  19
ENDBRANCH   6  16
TORSDOF 4
