REMARK  2 active torsions:
REMARK  status: ('A' for Active; 'I' for Inactive)
REMARK    1  A    between atoms: C_6  and  N_7 
REMARK    2  A    between atoms: C_12  and  C_13 
ROOT
HETATM    1 CL   UNL     1      -3.995   7.570   0.000  1.00  0.00    -0.086 Cl
HETATM    2  C   UNL     1      -2.495   7.570   0.000  1.00  0.00     0.047 A 
HETATM    3  C   UNL     1      -1.745   8.869   0.000  1.00  0.00     0.043 A 
HETATM    4  C   UNL     1      -1.745   6.271   0.000  1.00  0.00     0.044 A 
HETATM    5  C   UNL     1      -0.245   8.869   0.000  1.00  0.00     0.029 A 
HETATM    6  C   UNL     1      -0.245   6.271   0.000  1.00  0.00     0.067 A 
HETATM    7  C   UNL     1       0.505   7.570   0.000  1.00  0.00    -0.020 A 
ENDROOT
BRANCH   7   8
HETATM    8  C   UNL     1       2.005   7.570   0.000  1.00  0.00     0.104 A 
HETATM    9  N   UNL     1       2.755   8.869   0.000  1.00  0.00    -0.148 NA
HETATM   10  N   UNL     1       4.255   8.869   0.000  1.00  0.00    -0.108 NA
HETATM   11  C   UNL     1       5.005   7.570   0.000  1.00  0.00     0.274 A 
HETATM   12  O   UNL     1       4.255   6.271   0.000  1.00  0.00    -0.296 OA
HETATM   13  N   UNL     1       6.505   7.570   0.000  1.00  0.00    -0.053 NA
HETATM   14  C   UNL     1       2.755   6.271   0.000  1.00  0.00     0.198 A 
ENDBRANCH   7   8
BRANCH   4  15
HETATM   15  N   UNL     1      -2.495   4.972   0.000  1.00  0.00    -0.351 N 
HETATM   16  C   UNL     1      -3.987   4.815   0.000  1.00  0.00     0.101 A 
HETATM   17  C   UNL     1      -4.299   3.348   0.000  1.00  0.00     0.026 A 
HETATM   18  C   UNL     1      -3.000   2.598   0.000  1.00  0.00     0.026 A 
HETATM   19  C   UNL     1      -1.885   3.602   0.000  1.00  0.00     0.101 A 
ENDBRANCH   4  15
TORSDOF 2
