REMARK  2 active torsions:
REMARK  status: ('A' for Active; 'I' for Inactive)
REMARK    1  A    between atoms: C_10  and  C_13 
REMARK    2  A    between atoms: N_16  and  C_19 
ROOT
HETATM    1  C   UNL     1       8.169  -0.851   0.000  1.00  0.00     0.146 A 
HETATM    2  C   UNL     1       8.326  -2.342   0.000  1.00  0.00     0.134 A 
HETATM    3  N   UNL     1       9.540  -0.240   0.000  1.00  0.00    -0.162 NA
HETATM    4  N   UNL     1      10.543  -1.355   0.000  1.00  0.00    -0.237 N 
HETATM    5  C   UNL     1       9.793  -2.654   0.000  1.00  0.00     0.114 A 
HETATM    6  O   UNL     1       9.522  -5.238   0.000  1.00  0.00    -0.324 OA
HETATM    7  C   UNL     1      10.403  -4.024   0.000  1.00  0.00     0.192 A 
HETATM    8  C   UNL     1       8.030  -5.081   0.000  1.00  0.00     0.240 A 
HETATM    9  O   UNL     1       7.420  -3.711   0.000  1.00  0.00    -0.303 OA
HETATM   10  C   UNL     1       7.148  -6.295   0.000  1.00  0.00     0.067 C 
ENDROOT
BRANCH   1  11
HETATM   11  C   UNL     1       6.870  -0.101   0.000  1.00  0.00     0.144 A 
HETATM   12  N   UNL     1       5.571  -0.851   0.000  1.00  0.00    -0.243 NA
HETATM   13  C   UNL     1       4.272  -0.101   0.000  1.00  0.00     0.071 A 
HETATM   14  C   UNL     1       2.973  -0.851   0.000  1.00  0.00     0.047 A 
HETATM   15  C   UNL     1       4.272   1.399   0.000  1.00  0.00     0.049 A 
HETATM   16  C   UNL     1       1.674  -0.101   0.000  1.00  0.00     0.007 A 
HETATM   17  C   UNL     1       1.674   1.399   0.000  1.00  0.00     0.007 A 
HETATM   18  C   UNL     1       2.973   2.150   0.000  1.00  0.00     0.045 A 
HETATM   19  N   UNL     1       5.571   2.150   0.000  1.00  0.00    -0.334 N 
HETATM   20  H   UNL     1       5.571   3.650   0.000  1.00  0.00     0.168 HD
HETATM   21  C   UNL     1       6.870   1.399   0.000  1.00  0.00     0.210 A 
HETATM   22  O   UNL     1       8.169   2.150   0.000  1.00  0.00    -0.170 OA
ENDBRANCH   1  11
BRANCH   4  23
HETATM   23  C   UNL     1      12.035  -1.198   0.000  1.00  0.00     0.039 A 
HETATM   24  C   UNL     1      12.645   0.172   0.000  1.00  0.00     0.047 A 
HETATM   25  C   UNL     1      14.137   0.329   0.000  1.00  0.00     0.040 A 
HETATM   26  C   UNL     1      15.019  -0.885   0.000  1.00  0.00     0.014 A 
HETATM   27  C   UNL     1      14.409  -2.255   0.000  1.00  0.00     0.040 A 
HETATM   28 CL   UNL     1      16.510  -0.728   0.000  1.00  0.00    -0.092 Cl
HETATM   29  C   UNL     1      12.917  -2.412   0.000  1.00  0.00     0.047 A 
ENDBRANCH   4  23
TORSDOF 2
