REMARK  6 active torsions:
REMARK  status: ('A' for Active; 'I' for Inactive)
REMARK    1  A    between atoms: N_1  and  C_10 
REMARK    2  A    between atoms: C_5  and  C_6 
REMARK    3  A    between atoms: C_10  and  N_14 
REMARK    4  A    between atoms: N_11  and  C_12 
REMARK    5  A    between atoms: N_11  and  N_14 
REMARK    6  A    between atoms: C_12  and  C_15 
ROOT
HETATM    1  C   UNL     1      -3.527  -5.552   0.000  1.00  0.00     0.321 C 
HETATM    2  S   UNL     1      -2.776  -6.850   0.000  1.00  0.00    -0.030 SA
ENDROOT
BRANCH   1   3
HETATM    3  N   UNL     1      -2.778  -4.252   0.000  1.00  0.00     0.035 N 
HETATM    4  C   UNL     1      -1.282  -4.362   0.000  1.00  0.00     0.225 A 
HETATM    5  C   UNL     1      -0.263  -3.262   0.000  1.00  0.00     0.033 A 
HETATM    6  C   UNL     1      -0.488  -1.779   0.000  1.00  0.00     0.004 A 
HETATM    7  C   UNL     1      -1.009  -1.855   0.000  1.00  0.00     0.030 A 
HETATM    8  C   UNL     1      -1.788  -1.030   0.000  1.00  0.00     0.006 A 
HETATM    9  C   UNL     1      -2.439  -2.987   0.000  1.00  0.00     0.200 A 
HETATM   10  C   UNL     1      -3.184  -1.580   0.000  1.00  0.00     0.061 A 
HETATM   11  C   UNL     1      -3.625  -3.014   0.000  1.00  0.00     0.225 A 
ENDBRANCH   1   3
BRANCH   1  12
HETATM   12  N   UNL     1      -5.027  -5.553   0.000  1.00  0.00    -0.112 NA
BRANCH  12  13
HETATM   13  N   UNL     1      -5.776  -6.853   0.000  1.00  0.00    -0.149 NA
BRANCH  13  14
HETATM   14  C   UNL     1      -7.276  -6.855   0.000  1.00  0.00     0.096 C 
HETATM   15  C   UNL     1      -8.024  -8.155   0.000  1.00  0.00     0.055 C 
BRANCH  14  16
HETATM   16  C   UNL     1      -8.027  -5.557   0.000  1.00  0.00     0.093 A 
HETATM   17  C   UNL     1      -7.278  -4.257   0.000  1.00  0.00     0.166 A 
HETATM   18  N   UNL     1      -8.030  -2.959   0.000  1.00  0.00    -0.287 NA
HETATM   19  C   UNL     1      -9.530  -2.960   0.000  1.00  0.00     0.146 A 
HETATM   20  C   UNL     1     -10.278  -4.260   0.000  1.00  0.00     0.151 A 
HETATM   21  N   UNL     1      -9.527  -5.558   0.000  1.00  0.00    -0.270 NA
ENDBRANCH  14  16
ENDBRANCH  13  14
ENDBRANCH  12  13
ENDBRANCH   1  12
TORSDOF 6
