REMARK  0 active torsions:
REMARK  status: ('A' for Active; 'I' for Inactive)
ROOT
HETATM    1  C   UNL     1       3.623   1.774   0.000  1.00  0.00     0.238 A 
HETATM    2  N   UNL     1       3.623   0.275   0.000  1.00  0.00    -0.219 NA
HETATM    3  N   UNL     1       4.922   2.525   0.000  1.00  0.00    -0.200 NA
HETATM    4  C   UNL     1       4.922  -0.475   0.000  1.00  0.00     0.064 A 
HETATM    5  C   UNL     1       4.922  -1.976   0.000  1.00  0.00     0.052 A 
HETATM    6  C   UNL     1       6.221   0.275   0.000  1.00  0.00     0.042 A 
HETATM    7  C   UNL     1       6.221   1.774   0.000  1.00  0.00     0.154 A 
HETATM    8  C   UNL     1       6.221  -2.725   0.000  1.00  0.00     0.049 A 
HETATM    9  C   UNL     1       7.520  -0.475   0.000  1.00  0.00    -0.005 A 
HETATM   10  C   UNL     1       7.520  -1.976   0.000  1.00  0.00     0.026 A 
HETATM   11  C   UNL     1       8.946  -0.012   0.000  1.00  0.00     0.051 A 
HETATM   12  H   UNL     1       9.410  -3.866   0.000  1.00  0.00     0.160 HD
HETATM   13  N   UNL     1       8.946  -2.439   0.000  1.00  0.00    -0.377 N 
HETATM   14  C   UNL     1       9.828  -1.226   0.000  1.00  0.00     0.102 A 
HETATM   15  N   UNL     1       2.324   2.525   0.000  1.00  0.00    -0.060 NA
HETATM   16  N   UNL     1       7.520   2.525   0.000  1.00  0.00    -0.080 NA
ENDROOT
TORSDOF 0
