REMARK  1 active torsions:
REMARK  status: ('A' for Active; 'I' for Inactive)
REMARK    1  A    between atoms: C_1  and  N_14 
ROOT
HETATM    1  C   UNL     1      -0.101   6.870   0.000  1.00  0.00     0.136 A 
HETATM    2  C   UNL     1       0.649   8.169   0.000  1.00  0.00     0.006 A 
HETATM    3  C   UNL     1       0.649   5.571   0.000  1.00  0.00     0.082 A 
HETATM    4  N   UNL     1       2.150   5.571   0.000  1.00  0.00    -0.242 NA
HETATM    5  C   UNL     1       2.150   8.169   0.000  1.00  0.00     0.075 A 
HETATM    6  C   UNL     1       2.900   6.870   0.000  1.00  0.00     0.115 A 
HETATM    7  S   UNL     1       4.399   6.870   0.000  1.00  0.00    -0.040 SA
HETATM    8  C   UNL     1       5.149   8.169   0.000  1.00  0.00     0.243 A 
HETATM    9  C   UNL     1       6.649   8.169   0.000  1.00  0.00     0.080 A 
HETATM   10  N   UNL     1       4.399   9.468   0.000  1.00  0.00     0.238 N 
HETATM   11  C   UNL     1       7.399   9.468   0.000  1.00  0.00    -0.029 A 
HETATM   12  C   UNL     1       5.149  10.767   0.000  1.00  0.00     0.432 A 
HETATM   13  C   UNL     1       6.649  10.767   0.000  1.00  0.00     0.091 A 
HETATM   14  C   UNL     1      -0.101   9.468   0.000  1.00  0.00     0.033 C 
HETATM   15  C   UNL     1      -0.101   4.272   0.000  1.00  0.00     0.054 C 
HETATM   16  C   UNL     1       2.900   9.468   0.000  1.00  0.00     0.399 A 
HETATM   17  N   UNL     1       3.650  10.767   0.000  1.00  0.00     0.223 N 
HETATM   18  C   UNL     1       7.399   6.870   0.000  1.00  0.00     0.023 C 
HETATM   19  N   UNL     1       8.149   5.571   0.000  1.00  0.00    -0.096 N 
HETATM   20  C   UNL     1       4.399  12.066   0.000  1.00  0.00     0.327 A 
HETATM   21  C   UNL     1       8.899   9.468   0.000  1.00  0.00     0.027 C 
ENDROOT
BRANCH   1  22
HETATM   22  N   UNL     1      -1.601   6.870   0.000  1.00  0.00    -0.113 N 
HETATM   23  O   UNL     1      -2.350   8.169   0.000  1.00  0.00    -0.532 OA
HETATM   24  O   UNL     1      -2.350   5.571   0.000  1.00  0.00    -0.532 OA
ENDBRANCH   1  22
TORSDOF 1
