REMARK  4 active torsions:
REMARK  status: ('A' for Active; 'I' for Inactive)
REMARK    1  A    between atoms: C_7  and  C_8 
REMARK    2  A    between atoms: C_11  and  N_20 
REMARK       I    between atoms: C_13  and  N_20 
REMARK    3  A    between atoms: C_13  and  C_21 
REMARK    4  A    between atoms: N_15  and  C_21 
ROOT
HETATM    1  C   UNL     1       6.750   2.653   0.000  1.00  0.00     0.060 A 
HETATM    2  C   UNL     1       7.632   3.867   0.000  1.00  0.00     0.106 A 
HETATM    3  N   UNL     1       7.632   1.440   0.000  1.00  0.00    -0.233 NA
HETATM    4  C   UNL     1       9.058   1.903   0.000  1.00  0.00     0.413 A 
HETATM    5  S   UNL     1       9.058   3.403   0.000  1.00  0.00    -0.075 SA
ENDROOT
BRANCH   4   6
HETATM    6  N   UNL     1      10.272   1.022   0.000  1.00  0.00     0.406 N 
HETATM    7  C   UNL     1      11.515   1.860   0.000  1.00  0.00     0.430 C 
HETATM    8  O   UNL     1      11.411   3.357   0.000  1.00  0.00    -0.183 OA
BRANCH   7   9
HETATM    9  C   UNL     1      12.864   1.203   0.000  1.00  0.00     0.169 C 
BRANCH   9  10
HETATM   10  N   UNL     1      12.968  -0.293   0.000  1.00  0.00    -0.365 N 
HETATM   11  C   UNL     1      11.819  -1.258   0.000  1.00  0.00     0.097 A 
HETATM   12  C   UNL     1      12.381  -2.648   0.000  1.00  0.00     0.026 A 
HETATM   13  C   UNL     1      13.877  -2.544   0.000  1.00  0.00     0.026 A 
HETATM   14  C   UNL     1      14.240  -1.088   0.000  1.00  0.00     0.097 A 
ENDBRANCH   9  10
ENDBRANCH   7   9
ENDBRANCH   4   6
BRANCH   1  15
HETATM   15  C   UNL     1       5.250   2.653   0.000  1.00  0.00    -0.029 A 
HETATM   16  C   UNL     1       4.500   1.354   0.000  1.00  0.00     0.029 A 
HETATM   17  C   UNL     1       3.000   1.354   0.000  1.00  0.00     0.038 A 
HETATM   18  C   UNL     1       2.250   2.653   0.000  1.00  0.00     0.014 A 
HETATM   19 CL   UNL     1       0.750   2.653   0.000  1.00  0.00    -0.092 Cl
HETATM   20  C   UNL     1       3.000   3.952   0.000  1.00  0.00     0.038 A 
HETATM   21  C   UNL     1       4.500   3.952   0.000  1.00  0.00     0.029 A 
ENDBRANCH   1  15
TORSDOF 4
