REMARK  3 active torsions:
REMARK  status: ('A' for Active; 'I' for Inactive)
REMARK    1  A    between atoms: C_5  and  N_9 
REMARK    2  A    between atoms: C_8  and  C_14 
REMARK    3  A    between atoms: N_9  and  C_10 
ROOT
HETATM    1  C   UNL     2       2.609 -14.971   0.000  1.00  0.00     0.166 C 
HETATM    2  S   UNL     2       2.276 -13.508   0.000  1.00  0.00     0.117 S 
HETATM    3  O   UNL     2       3.738 -13.174   0.000  1.00  0.00    -0.594 OA
HETATM    4  O   UNL     2       0.813 -13.842   0.000  1.00  0.00    -0.594 OA
HETATM    5  O   UNL     2       1.942 -12.046   0.000  1.00  0.00    -0.594 OA
ENDROOT
TORSDOF 3
