REMARK  2 active torsions:
REMARK  status: ('A' for Active; 'I' for Inactive)
REMARK    1  A    between atoms: C_4  and  C_7 
REMARK    2  A    between atoms: C_7  and  C_8 
ROOT
HETATM    1  N   UNL     1       0.601   4.504   0.000  1.00  0.00    -0.084 NA
HETATM    2  N   UNL     1       1.815   5.386   0.000  1.00  0.00    -0.119 NA
HETATM    3  S   UNL     1       2.565   3.078   0.000  1.00  0.00    -0.065 SA
HETATM    4  C   UNL     1       3.028   4.504   0.000  1.00  0.00     0.142 A 
HETATM    5  C   UNL     1       1.065   3.078   0.000  1.00  0.00     0.444 A 
HETATM    6  N   UNL     1       0.183   1.864   0.000  1.00  0.00     0.650 N 
ENDROOT
BRANCH   4   7
HETATM    7  C   UNL     1       4.455   4.968   0.000  1.00  0.00     0.030 C 
BRANCH   7   8
HETATM    8  C   UNL     1       5.569   3.964   0.000  1.00  0.00     0.002 C 
HETATM    9  C   UNL     1       6.996   4.428   0.000  1.00  0.00     0.000 C 
HETATM   10  C   UNL     1       5.258   2.497   0.000  1.00  0.00     0.000 C 
ENDBRANCH   7   8
ENDBRANCH   4   7
TORSDOF 2
