REMARK  1 active torsions:
REMARK  status: ('A' for Active; 'I' for Inactive)
REMARK    1  A    between atoms: C_5  and  N_14 
ROOT
HETATM    1  C   UNL     1      -2.905   0.904   0.000  1.00  0.00     0.235 A 
HETATM    2  N   UNL     1      -3.344  -0.530   0.000  1.00  0.00    -0.222 NA
HETATM    3  N   UNL     1      -1.405   0.929   0.000  1.00  0.00    -0.300 N 
HETATM    4  C   UNL     1      -0.917  -0.489   0.000  1.00  0.00     0.132 A 
HETATM    5  C   UNL     1      -2.116  -1.391   0.000  1.00  0.00     0.227 A 
HETATM    6  S   UNL     1       0.517  -0.928   0.000  1.00  0.00    -0.030 SA
HETATM    7  H   UNL     1       3.780  -0.986   0.000  1.00  0.00     0.191 HD
HETATM    8  C   UNL     1       1.420   0.270   0.000  1.00  0.00     0.174 A 
HETATM    9  N   UNL     1       2.920   0.243   0.000  1.00  0.00    -0.253 N 
HETATM   10  N   UNL     1       0.982   1.704   0.000  1.00  0.00    -0.260 N 
HETATM   11  N   UNL     1       3.409   1.661   0.000  1.00  0.00    -0.138 NA
HETATM   12  C   UNL     1       2.211   2.564   0.000  1.00  0.00     0.239 A 
HETATM   13  C   UNL     1      -0.544   2.158   0.000  1.00  0.00     0.220 A 
HETATM   14  N   UNL     1       2.238   4.064   0.000  1.00  0.00    -0.060 NA
ENDROOT
BRANCH   5  15
HETATM   15  N   UNL     1      -2.090  -2.891   0.000  1.00  0.00    -0.093 N 
HETATM   16  O   UNL     1      -0.778  -3.619   0.000  1.00  0.00    -0.530 OA
HETATM   17  O   UNL     1      -3.376  -3.663   0.000  1.00  0.00    -0.530 OA
ENDBRANCH   5  15
TORSDOF 1
