REMARK  7 active torsions:
REMARK  status: ('A' for Active; 'I' for Inactive)
REMARK    1  A    between atoms: C_3  and  N_25 
REMARK       I    between atoms: C_4  and  N_25 
REMARK       I    between atoms: C_4  and  N_26 
REMARK    2  A    between atoms: C_6  and  N_26 
REMARK    3  A    between atoms: O_7  and  C_9 
REMARK    4  A    between atoms: C_12  and  C_13 
REMARK    5  A    between atoms: C_16  and  O_19 
REMARK    6  A    between atoms: C_18  and  N_29 
REMARK       I    between atoms: C_21  and  N_29 
REMARK       I    between atoms: C_21  and  N_30 
REMARK    7  A    between atoms: C_22  and  N_30 
ROOT
HETATM    1  C   UNL     1       4.500   4.647   0.000  1.00  0.00     0.081 A 
HETATM    2  C   UNL     1       5.250   5.946   0.000  1.00  0.00     0.052 A 
HETATM    3  C   UNL     1       5.250   3.348   0.000  1.00  0.00     0.089 A 
HETATM    4  C   UNL     1       6.750   5.946   0.000  1.00  0.00     0.028 A 
HETATM    5  C   UNL     1       6.750   3.348   0.000  1.00  0.00     0.074 A 
HETATM    6  C   UNL     1       7.500   4.647   0.000  1.00  0.00    -0.045 A 
ENDROOT
BRANCH   6   7
HETATM    7  C   UNL     1       9.000   4.647   0.000  1.00  0.00    -0.045 A 
HETATM    8  C   UNL     1       9.750   5.946   0.000  1.00  0.00     0.028 A 
HETATM    9  C   UNL     1      11.250   5.946   0.000  1.00  0.00     0.052 A 
HETATM   10  C   UNL     1      12.000   4.647   0.000  1.00  0.00     0.081 A 
HETATM   11  C   UNL     1      11.250   3.348   0.000  1.00  0.00     0.089 A 
HETATM   12  C   UNL     1       9.750   3.348   0.000  1.00  0.00     0.074 A 
BRANCH  10  13
HETATM   13  N   UNL     1      13.500   4.647   0.000  1.00  0.00    -0.206 NA
HETATM   14  C   UNL     1      14.250   5.946   0.000  1.00  0.00     0.300 C 
HETATM   15  O   UNL     1      13.500   7.245   0.000  1.00  0.00    -0.147 OA
HETATM   16  N   UNL     1      15.750   5.946   0.000  1.00  0.00    -0.212 NA
BRANCH  16  17
HETATM   17  C   UNL     1      16.500   7.245   0.000  1.00  0.00     0.041 A 
HETATM   18  C   UNL     1      16.500   8.745   0.000  1.00  0.00     0.047 A 
HETATM   19  C   UNL     1      17.799   7.995   0.000  1.00  0.00     0.047 A 
ENDBRANCH  16  17
ENDBRANCH  10  13
BRANCH  11  20
HETATM   20  O   UNL     1      12.000   2.049   0.000  1.00  0.00    -0.331 OA
HETATM   21  C   UNL     1      13.500   2.049   0.000  1.00  0.00     0.181 C 
ENDBRANCH  11  20
ENDBRANCH   6   7
BRANCH   3  22
HETATM   22  O   UNL     1       4.500   2.049   0.000  1.00  0.00    -0.331 OA
HETATM   23  C   UNL     1       5.250   0.750   0.000  1.00  0.00     0.181 C 
ENDBRANCH   3  22
BRANCH   1  24
HETATM   24  N   UNL     1       3.000   4.647   0.000  1.00  0.00    -0.206 NA
HETATM   25  C   UNL     1       2.250   5.946   0.000  1.00  0.00     0.300 C 
HETATM   26  O   UNL     1       0.750   5.946   0.000  1.00  0.00    -0.147 OA
HETATM   27  N   UNL     1       3.000   7.245   0.000  1.00  0.00    -0.212 NA
BRANCH  27  28
HETATM   28  C   UNL     1       2.250   8.544   0.000  1.00  0.00     0.041 A 
HETATM   29  C   UNL     1       0.951   9.294   0.000  1.00  0.00     0.047 A 
HETATM   30  C   UNL     1       2.250  10.044   0.000  1.00  0.00     0.047 A 
ENDBRANCH  27  28
ENDBRANCH   1  24
TORSDOF 7
