REMARK  1 active torsions:
REMARK  status: ('A' for Active; 'I' for Inactive)
REMARK    1  A    between atoms: O_9  and  C_12 
ROOT
HETATM    1  C   UNL     1      -1.566  -0.180   0.000  1.00  0.00    -0.001 A 
HETATM    2  C   UNL     1      -1.328  -1.661   0.000  1.00  0.00     0.076 A 
HETATM    3  C   UNL     1       0.073  -2.196   0.000  1.00  0.00     0.096 A 
HETATM    4  C   UNL     1       1.237  -1.249   0.000  1.00  0.00     0.057 A 
HETATM    5  C   UNL     1       0.999   0.232   0.000  1.00  0.00    -0.008 A 
HETATM    6  C   UNL     1      -0.402   0.767   0.000  1.00  0.00     0.055 A 
HETATM    7  C   UNL     1       3.397  -0.143   0.000  1.00  0.00     0.156 A 
HETATM    8  C   UNL     1       2.334   0.915   0.000  1.00  0.00     0.007 A 
HETATM    9  O   UNL     1      -2.967   0.355   0.000  1.00  0.00     0.000 OA
HETATM   10  O   UNL     1      -2.492  -2.607   0.000  1.00  0.00    -0.308 OA
HETATM   11  N   UNL     1       2.719  -1.481   0.000  1.00  0.00    -0.270 NA
HETATM   12  C   UNL     1      -3.894  -2.072   0.000  1.00  0.00     0.273 A 
HETATM   13  O   UNL     1      -4.131  -0.591   0.000  1.00  0.00    -0.190 OA
HETATM   14  C   UNL     1      -5.058  -3.019   0.000  1.00  0.00     0.070 C 
HETATM   15  C   UNL     1       4.657  -0.957   0.000  1.00  0.00     0.034 C 
HETATM   16  C   UNL     1       4.339   1.025   0.000  1.00  0.00     0.294 A 
HETATM   17  O   UNL     1       5.821   0.793   0.000  1.00  0.00    -0.188 OA
HETATM   18  O   UNL     1       3.799   2.424   0.000  1.00  0.00    -0.323 OA
HETATM   19  C   UNL     1       2.317   2.656   0.000  1.00  0.00     0.169 A 
ENDROOT
BRANCH   9  20
HETATM   20  C   UNL     1      -3.205   1.836   0.000  1.00  0.00     0.130 C 
HETATM   21  O   UNL     1      -2.041   2.782   0.000  1.00  0.00    -0.193 OA
HETATM   22  C   UNL     1      -4.606   2.371   0.000  1.00  0.00     0.063 C 
ENDBRANCH   9  20
TORSDOF 1
