REMARK  0 active torsions:
REMARK  status: ('A' for Active; 'I' for Inactive)
ROOT
HETATM    1  C   UNL     1       2.185   1.563   0.000  1.00  0.00     0.035 A 
HETATM    2  C   UNL     1       2.185   0.063   0.000  1.00  0.00     0.007 A 
HETATM    3  C   UNL     1       3.484   2.313   0.000  1.00  0.00     0.166 A 
HETATM    4  C   UNL     1       3.484  -0.688   0.000  1.00  0.00     0.027 A 
HETATM    5  C   UNL     1       4.783   1.563   0.000  1.00  0.00     0.200 A 
HETATM    6  C   UNL     1       4.783   0.063   0.000  1.00  0.00     0.014 A 
HETATM    7  C   UNL     1       6.209  -0.401   0.000  1.00  0.00     0.092 A 
HETATM    8  N   UNL     1       6.209   2.026   0.000  1.00  0.00    -0.329 N 
HETATM    9  C   UNL     1       7.091   0.813   0.000  1.00  0.00     0.197 A 
HETATM   10  H   UNL     1       6.673   3.453   0.000  1.00  0.00     0.165 HD
HETATM   11  O   UNL     1       8.591   0.813   0.000  1.00  0.00    -0.171 OA
HETATM   12  O   UNL     1       4.939   3.054   0.000  1.00  0.00    -0.333 OA
HETATM   13  C   UNL     1       6.673  -1.828   0.000  1.00  0.00     0.025 C 
HETATM   14  N   UNL     1       7.136  -3.254   0.000  1.00  0.00    -0.096 N 
ENDROOT
TORSDOF 0
