REMARK  1 active torsions:
REMARK  status: ('A' for Active; 'I' for Inactive)
REMARK    1  A    between atoms: C_10  and  C_12 
ROOT
HETATM    1  O   UNL     1       2.223   6.649   0.000  1.00  0.00    -0.306 OA
HETATM    2  O   UNL     1       3.522   4.399   0.000  1.00  0.00    -0.290 OA
HETATM    3  C   UNL     1       3.522   5.899   0.000  1.00  0.00     0.196 A 
HETATM    4  C   UNL     1       0.924   5.899   0.000  1.00  0.00     0.178 A 
HETATM    5  C   UNL     1       0.924   4.399   0.000  1.00  0.00     0.019 A 
HETATM    6  C   UNL     1       2.223   3.650   0.000  1.00  0.00     0.077 A 
HETATM    7  C   UNL     1      -0.375   3.650   0.000  1.00  0.00    -0.044 A 
HETATM    8  C   UNL     1      -1.674   4.399   0.000  1.00  0.00     0.026 C 
HETATM    9  C   UNL     1       2.223   2.150   0.000  1.00  0.00     0.052 A 
HETATM   10  C   UNL     1       0.924   1.399   0.000  1.00  0.00     0.011 A 
HETATM   11  C   UNL     1      -0.375   2.150   0.000  1.00  0.00     0.022 A 
ENDROOT
BRANCH   3  12
HETATM   12  C   UNL     1       4.821   6.649   0.000  1.00  0.00     0.038 A 
HETATM   13  C   UNL     1       4.821   8.149   0.000  1.00  0.00     0.042 A 
HETATM   14 CL   UNL     1       3.522   8.899   0.000  1.00  0.00    -0.087 Cl
HETATM   15  C   UNL     1       6.120   8.899   0.000  1.00  0.00     0.090 A 
HETATM   16  C   UNL     1       7.419   8.149   0.000  1.00  0.00     0.098 A 
HETATM   17  O   UNL     1       8.846   8.613   0.000  1.00  0.00    -0.304 OA
HETATM   18  C   UNL     1       7.419   6.649   0.000  1.00  0.00     0.098 A 
HETATM   19  C   UNL     1       9.727   7.399   0.000  1.00  0.00     0.303 A 
HETATM   20  O   UNL     1       8.846   6.186   0.000  1.00  0.00    -0.304 OA
HETATM   21  C   UNL     1       6.120   5.899   0.000  1.00  0.00     0.084 A 
ENDBRANCH   3  12
TORSDOF 1
