REMARK  2 active torsions:
REMARK  status: ('A' for Active; 'I' for Inactive)
REMARK    1  A    between atoms: C_6  and  C_8 
REMARK    2  A    between atoms: C_8  and  C_9 
ROOT
HETATM    1  C   UNL     1       5.524   4.922   0.000  1.00  0.00     0.042 A 
HETATM    2  C   UNL     1       4.774   6.221   0.000  1.00  0.00     0.074 A 
HETATM    3  C   UNL     1       7.024   4.922   0.000  1.00  0.00     0.047 C 
HETATM    4  C   UNL     1       3.275   6.221   0.000  1.00  0.00     0.156 A 
HETATM    5  N   UNL     1       4.774   3.623   0.000  1.00  0.00    -0.235 NA
HETATM    6  C   UNL     1       3.275   3.623   0.000  1.00  0.00     0.153 A 
HETATM    7  O   UNL     1       2.525   4.922   0.000  1.00  0.00    -0.318 OA
ENDROOT
BRANCH   6   8
HETATM    8  C   UNL     1       2.525   2.324   0.000  1.00  0.00     0.071 C 
BRANCH   8   9
HETATM    9  C   UNL     1       1.024   2.324   0.000  1.00  0.00     0.008 C 
HETATM   10  C   UNL     1       0.275   3.623   0.000  1.00  0.00     0.001 C 
HETATM   11  C   UNL     1       0.275   1.024   0.000  1.00  0.00     0.001 C 
ENDBRANCH   8   9
ENDBRANCH   6   8
TORSDOF 2
