REMARK  0 active torsions:
REMARK  status: ('A' for Active; 'I' for Inactive)
ROOT
HETATM    1  C   UNL     1       0.750  -3.000   0.000  1.00  0.00     0.111 A 
HETATM    2  C   UNL     1       0.750  -4.500   0.000  1.00  0.00     0.066 A 
HETATM    3  C   UNL     1       2.049  -5.250   0.000  1.00  0.00     0.049 A 
HETATM    4  N   UNL     1       2.049  -2.250   0.000  1.00  0.00    -0.311 N 
HETATM    5  N   UNL     1       3.348  -4.500   0.000  1.00  0.00    -0.270 N 
HETATM    6  C   UNL     1       3.348  -3.000   0.000  1.00  0.00     0.261 A 
HETATM    7  O   UNL     1       4.647  -2.250   0.000  1.00  0.00    -0.151 OA
HETATM    8  C   UNL     1       2.049  -6.750   0.000  1.00  0.00     0.202 A 
HETATM    9  C   UNL     1       2.049  -0.750   0.000  1.00  0.00     0.129 C 
HETATM   10  N   UNL     1       3.348  -7.500   0.000  1.00  0.00    -0.104 N 
HETATM   11  O   UNL     1       4.647  -6.750   0.000  1.00  0.00    -0.209 OA
HETATM   12  O   UNL     1       3.348  -9.000   0.000  1.00  0.00    -0.061 OA
HETATM   13  C   UNL     1       4.647  -5.250   0.000  1.00  0.00     0.289 A 
ENDROOT
TORSDOF 0
