REMARK  7 active torsions:
REMARK  status: ('A' for Active; 'I' for Inactive)
REMARK    1  A    between atoms: O_1  and  C_2 
REMARK    2  A    between atoms: O_1  and  C_26 
REMARK    3  A    between atoms: C_2  and  C_28 
REMARK    4  A    between atoms: N_4  and  C_28 
REMARK    5  A    between atoms: C_11  and  C_31 
REMARK    6  A    between atoms: N_14  and  C_32 
REMARK    7  A    between atoms: C_31  and  C_32 
ROOT
HETATM    1  N   UNL     1       1.275   9.685   0.000  1.00  0.00    -0.248 N 
HETATM    2  N   UNL     1       2.156  10.898   0.000  1.00  0.00    -0.144 NA
HETATM    3  C   UNL     1       2.156   8.471   0.000  1.00  0.00     0.059 A 
HETATM    4  C   UNL     1       3.583   8.935   0.000  1.00  0.00     0.052 A 
HETATM    5  C   UNL     1       3.583  10.435   0.000  1.00  0.00     0.204 A 
HETATM    6  O   UNL     1       4.882  11.185   0.000  1.00  0.00    -0.264 OA
HETATM    7  C   UNL     1       4.882   8.185   0.000  1.00  0.00    -0.017 A 
HETATM    8  C   UNL     1       6.181   8.935   0.000  1.00  0.00     0.025 A 
HETATM    9  C   UNL     1       6.181  10.435   0.000  1.00  0.00     0.230 A 
HETATM   10  O   UNL     1       7.480  11.185   0.000  1.00  0.00    -0.163 OA
HETATM   11  C   UNL     1       1.693   7.045   0.000  1.00  0.00     0.052 C 
HETATM   12  C   UNL     1       4.882   6.685   0.000  1.00  0.00     0.031 C 
ENDROOT
BRANCH   8  13
HETATM   13  C   UNL     1       7.480   8.185   0.000  1.00  0.00     0.054 C 
BRANCH  13  14
HETATM   14  C   UNL     1       8.629   9.149   0.000  1.00  0.00     0.102 C 
BRANCH  14  15
HETATM   15  N   UNL     1      10.039   8.636   0.000  1.00  0.00    -0.362 N 
HETATM   16  C   UNL     1      11.188   9.600   0.000  1.00  0.00     0.122 A 
HETATM   17  C   UNL     1      12.597   9.087   0.000  1.00  0.00     0.129 A 
HETATM   18  N   UNL     1      12.858   7.610   0.000  1.00  0.00    -0.331 N 
HETATM   19  C   UNL     1      11.709   6.646   0.000  1.00  0.00     0.067 A 
HETATM   20  C   UNL     1      14.267   7.097   0.000  1.00  0.00     0.055 A 
HETATM   21  C   UNL     1      10.299   7.159   0.000  1.00  0.00     0.140 A 
HETATM   22  C   UNL     1      11.969   5.168   0.000  1.00  0.00     0.189 A 
HETATM   23  O   UNL     1      13.379   4.655   0.000  1.00  0.00    -0.328 OA
HETATM   24  C   UNL     1      14.528   5.619   0.000  1.00  0.00     0.084 A 
HETATM   25  C   UNL     1      15.937   5.106   0.000  1.00  0.00     0.052 A 
HETATM   26  C   UNL     1      17.086   6.071   0.000  1.00  0.00     0.007 A 
HETATM   27  C   UNL     1      16.826   7.548   0.000  1.00  0.00     0.007 A 
HETATM   28  C   UNL     1      15.416   8.061   0.000  1.00  0.00     0.045 A 
ENDBRANCH  14  15
ENDBRANCH  13  14
ENDBRANCH   8  13
BRANCH   1  29
HETATM   29  C   UNL     1      -0.225   9.685   0.000  1.00  0.00     0.191 C 
BRANCH  29  30
HETATM   30  C   UNL     1      -0.975   8.386   0.000  1.00  0.00     0.294 C 
HETATM   31  O   UNL     1      -2.475   8.386   0.000  1.00  0.00    -0.188 OA
BRANCH  30  32
HETATM   32  O   UNL     1      -0.225   7.087   0.000  1.00  0.00    -0.328 OA
BRANCH  32  33
HETATM   33  C   UNL     1      -0.975   5.787   0.000  1.00  0.00     0.145 C 
HETATM   34  C   UNL     1      -2.475   5.787   0.000  1.00  0.00     0.035 C 
ENDBRANCH  32  33
ENDBRANCH  30  32
ENDBRANCH  29  30
ENDBRANCH   1  29
TORSDOF 7
