REMARK  2 active torsions:
REMARK  status: ('A' for Active; 'I' for Inactive)
REMARK    1  A    between atoms: N_3  and  N_15 
REMARK       I    between atoms: C_5  and  N_15 
REMARK       I    between atoms: C_5  and  N_16 
REMARK    2  A    between atoms: N_11  and  N_16 
ROOT
HETATM    1  C   UNL     1       3.348  -2.250   0.000  1.00  0.00     0.332 C 
HETATM    2  O   UNL     1       3.348  -0.750   0.000  1.00  0.00    -0.144 OA
HETATM    3  N   UNL     1       2.049  -3.000   0.000  1.00  0.00    -0.126 NA
HETATM    4  N   UNL     1       4.647  -3.000   0.000  1.00  0.00    -0.126 NA
ENDROOT
BRANCH   3   5
HETATM    5  N   UNL     1       0.750  -2.250   0.000  1.00  0.00    -0.269 N 
HETATM    6  C   UNL     1      -0.549  -3.000   0.000  1.00  0.00     0.122 A 
HETATM    7  C   UNL     1      -1.848  -2.250   0.000  1.00  0.00     0.026 A 
HETATM    8  C   UNL     1      -1.848  -0.750   0.000  1.00  0.00     0.004 A 
HETATM    9  C   UNL     1      -0.549   0.000   0.000  1.00  0.00     0.026 A 
HETATM   10  C   UNL     1       0.750  -0.750   0.000  1.00  0.00     0.122 A 
ENDBRANCH   3   5
BRANCH   4  11
HETATM   11  N   UNL     1       4.647  -4.500   0.000  1.00  0.00    -0.269 N 
HETATM   12  C   UNL     1       3.348  -5.250   0.000  1.00  0.00     0.122 A 
HETATM   13  C   UNL     1       3.348  -6.750   0.000  1.00  0.00     0.026 A 
HETATM   14  C   UNL     1       4.647  -7.500   0.000  1.00  0.00     0.004 A 
HETATM   15  C   UNL     1       5.946  -6.750   0.000  1.00  0.00     0.026 A 
HETATM   16  C   UNL     1       5.946  -5.250   0.000  1.00  0.00     0.122 A 
ENDBRANCH   4  11
TORSDOF 2
