REMARK  2 active torsions:
REMARK  status: ('A' for Active; 'I' for Inactive)
REMARK    1  A    between atoms: O_1  and  C_3 
REMARK    2  A    between atoms: C_26  and  C_31 
ROOT
HETATM    1  C   UNL     1       9.905  -7.955   0.000  1.00  0.00     0.073 A 
HETATM    2  C   UNL     1      10.805  -9.155   0.000  1.00  0.00     0.101 A 
HETATM    3  C   UNL     1      12.225  -8.670   0.000  1.00  0.00     0.151 A 
HETATM    4  C   UNL     1       9.506  -6.380   0.000  1.00  0.00     0.043 A 
HETATM    5  C   UNL     1      10.768  -6.728   0.000  1.00  0.00    -0.030 A 
HETATM    6  C   UNL     1      12.202  -7.170   0.000  1.00  0.00     0.045 A 
HETATM    7  C   UNL     1       8.720  -5.333   0.000  1.00  0.00    -0.044 A 
HETATM    8  C   UNL     1      13.441  -6.325   0.000  1.00  0.00     0.134 A 
HETATM    9  O   UNL     1      14.740  -7.074   0.000  1.00  0.00    -0.190 OA
HETATM   10  C   UNL     1      13.552  -4.829   0.000  1.00  0.00     0.050 A 
HETATM   11  C   UNL     1       7.969  -4.034   0.000  1.00  0.00    -0.033 A 
HETATM   12  C   UNL     1      12.452  -3.809   0.000  1.00  0.00     0.111 A 
HETATM   13  C   UNL     1       6.469  -4.035   0.000  1.00  0.00     0.047 A 
HETATM   14  C   UNL     1      10.969  -4.033   0.000  1.00  0.00     0.059 A 
HETATM   15  C   UNL     1       5.719  -2.736   0.000  1.00  0.00    -0.034 A 
HETATM   16  C   UNL     1       4.219  -2.736   0.000  1.00  0.00     0.095 A 
HETATM   17  C   UNL     1      10.219  -2.734   0.000  1.00  0.00     0.029 A 
HETATM   18  O   UNL     1       1.968  -1.438   0.000  1.00  0.00    -0.176 OA
HETATM   19  C   UNL     1       3.468  -1.438   0.000  1.00  0.00     0.172 A 
HETATM   20  N   UNL     1       4.218  -0.138   0.000  1.00  0.00    -0.336 N 
HETATM   21  H   UNL     1       3.467   1.161   0.000  1.00  0.00     0.168 HD
HETATM   22  C   UNL     1       7.968  -1.436   0.000  1.00  0.00     0.049 A 
HETATM   23  C   UNL     1       8.719  -2.735   0.000  1.00  0.00    -0.044 A 
HETATM   24  C   UNL     1       6.468  -1.437   0.000  1.00  0.00    -0.010 A 
HETATM   25  C   UNL     1       5.718  -0.138   0.000  1.00  0.00     0.045 A 
HETATM   26  O   UNL     1      13.451  -9.533   0.000  1.00  0.00    -0.188 OA
HETATM   27  C   UNL     1       7.970  -6.632   0.000  1.00  0.00     0.030 A 
HETATM   28  O   UNL     1      12.894  -2.375   0.000  1.00  0.00    -0.195 OA
ENDROOT
BRANCH  25  29
HETATM   29  C   UNL     1       6.467   1.162   0.000  1.00  0.00    -0.029 A 
HETATM   30  C   UNL     1       5.717   2.460   0.000  1.00  0.00     0.023 A 
HETATM   31  C   UNL     1       6.466   3.760   0.000  1.00  0.00     0.004 A 
HETATM   32  C   UNL     1       7.966   3.760   0.000  1.00  0.00     0.001 A 
HETATM   33  C   UNL     1       8.717   2.461   0.000  1.00  0.00     0.004 A 
HETATM   34  C   UNL     1       7.967   1.162   0.000  1.00  0.00     0.023 A 
ENDBRANCH  25  29
BRANCH   2  35
HETATM   35  O   UNL     1      10.364 -10.589   0.000  1.00  0.00    -0.330 OA
HETATM   36  C   UNL     1       8.901 -10.923   0.000  1.00  0.00     0.181 C 
ENDBRANCH   2  35
TORSDOF 2
