REMARK  2 active torsions:
REMARK  status: ('A' for Active; 'I' for Inactive)
REMARK    1  A    between atoms: C_5  and  C_7 
REMARK    2  A    between atoms: C_7  and  C_10 
ROOT
HETATM    1  C   UNL     1       0.275   3.623   0.000  1.00  0.00     0.065 A 
HETATM    2  C   UNL     1       1.024   4.922   0.000  1.00  0.00     0.034 A 
HETATM    3  C   UNL     1       1.024   2.324   0.000  1.00  0.00     0.124 A 
HETATM    4  N   UNL     1       2.525   2.324   0.000  1.00  0.00    -0.257 NA
HETATM    5  C   UNL     1       2.525   4.922   0.000  1.00  0.00     0.006 A 
HETATM    6  C   UNL     1       3.275   3.623   0.000  1.00  0.00     0.151 A 
HETATM    7  N   UNL     1       0.275   1.024   0.000  1.00  0.00    -0.085 NA
ENDROOT
BRANCH   5   8
HETATM    8  C   UNL     1       3.275   6.221   0.000  1.00  0.00     0.127 C 
HETATM    9  O   UNL     1       2.525   7.520   0.000  1.00  0.00    -0.191 OA
BRANCH   8  10
HETATM   10  C   UNL     1       4.774   6.221   0.000  1.00  0.00     0.028 A 
HETATM   11  C   UNL     1       5.656   7.434   0.000  1.00  0.00     0.036 A 
HETATM   12  C   UNL     1       7.083   6.971   0.000  1.00  0.00     0.017 A 
HETATM   13  C   UNL     1       7.083   5.471   0.000  1.00  0.00     0.062 A 
HETATM   14  S   UNL     1       5.656   5.007   0.000  1.00  0.00    -0.116 SA
ENDBRANCH   8  10
ENDBRANCH   5   8
TORSDOF 2
