REMARK  2 active torsions:
REMARK  status: ('A' for Active; 'I' for Inactive)
REMARK    1  A    between atoms: C_6  and  C_9 
REMARK    2  A    between atoms: C_9  and  C_10 
ROOT
HETATM    1  C   UNL     1      -3.307  -0.086   0.000  1.00  0.00     0.062 A 
HETATM    2 CL   UNL     1      -4.191  -2.529   0.000  1.00  0.00    -0.067 Cl
HETATM    3  C   UNL     1      -2.160   0.880   0.000  1.00  0.00     0.033 A 
HETATM    4  C   UNL     1      -3.044  -1.563   0.000  1.00  0.00     0.111 A 
HETATM    5  N   UNL     1      -1.634  -2.073   0.000  1.00  0.00    -0.259 NA
HETATM    6  C   UNL     1      -0.750   0.370   0.000  1.00  0.00     0.006 A 
HETATM    7  C   UNL     1      -0.486  -1.107   0.000  1.00  0.00     0.150 A 
ENDROOT
BRANCH   6   8
HETATM    8  C   UNL     1       0.398   1.336   0.000  1.00  0.00     0.127 C 
HETATM    9  O   UNL     1       0.135   2.813   0.000  1.00  0.00    -0.191 OA
BRANCH   8  10
HETATM   10  C   UNL     1       1.808   0.826   0.000  1.00  0.00     0.028 A 
HETATM   11  C   UNL     1       3.050   1.667   0.000  1.00  0.00     0.036 A 
HETATM   12  C   UNL     1       4.234   0.745   0.000  1.00  0.00     0.017 A 
HETATM   13  C   UNL     1       3.724  -0.665   0.000  1.00  0.00     0.062 A 
HETATM   14  S   UNL     1       2.224  -0.615   0.000  1.00  0.00    -0.116 SA
ENDBRANCH   8  10
ENDBRANCH   6   8
TORSDOF 2
