REMARK  2 active torsions:
REMARK  status: ('A' for Active; 'I' for Inactive)
REMARK    1  A    between atoms: C_5  and  C_6 
REMARK    2  A    between atoms: C_15  and  C_19 
ROOT
HETATM    1  C   UNL     1       3.313   4.520   0.000  1.00  0.00     0.035 A 
HETATM    2  C   UNL     1       4.427   3.517   0.000  1.00  0.00     0.220 A 
HETATM    3  O   UNL     1       3.817  -0.452   0.000  1.00  0.00    -0.193 OA
HETATM    4  N   UNL     1       3.817   2.146   0.000  1.00  0.00     0.023 N 
HETATM    5  C   UNL     1       4.567   0.847   0.000  1.00  0.00     0.313 A 
HETATM    6  O   UNL     1       2.014   3.770   0.000  1.00  0.00     0.000 OA
HETATM    7  C   UNL     1       2.325   2.303   0.000  1.00  0.00     0.240 A 
HETATM    8  C   UNL     1       0.858   2.615   0.000  1.00  0.00    -0.020 A 
HETATM    9  C   UNL     1       2.789   0.876   0.000  1.00  0.00     0.248 A 
HETATM   10  C   UNL     1       1.785  -0.238   0.000  1.00  0.00     0.036 A 
HETATM   11  C   UNL     1      -0.145   1.500   0.000  1.00  0.00     0.023 A 
HETATM   12  C   UNL     1       0.318   0.074   0.000  1.00  0.00     0.006 A 
ENDROOT
BRANCH   5  13
HETATM   13  C   UNL     1       6.067   0.847   0.000  1.00  0.00     0.058 A 
HETATM   14  C   UNL     1       6.817   2.146   0.000  1.00  0.00     0.004 A 
HETATM   15  C   UNL     1       8.317   2.146   0.000  1.00  0.00     0.000 A 
HETATM   16  C   UNL     1       9.067   0.847   0.000  1.00  0.00     0.000 A 
HETATM   17  C   UNL     1       8.317  -0.452   0.000  1.00  0.00     0.000 A 
HETATM   18  C   UNL     1       6.817  -0.452   0.000  1.00  0.00     0.004 A 
BRANCH  16  19
HETATM   19  C   UNL     1      10.567   0.847   0.000  1.00  0.00     0.000 C 
HETATM   20  C   UNL     1      10.567  -0.653   0.000  1.00  0.00     0.000 C 
HETATM   21  C   UNL     1      10.567   2.347   0.000  1.00  0.00     0.000 C 
HETATM   22  C   UNL     1      12.067   0.847   0.000  1.00  0.00     0.000 C 
ENDBRANCH  16  19
ENDBRANCH   5  13
TORSDOF 2
