REMARK  3 active torsions:
REMARK  status: ('A' for Active; 'I' for Inactive)
REMARK    1  A    between atoms: C_7  and  N_9 
REMARK    2  A    between atoms: S_10  and  C_11 
REMARK    3  A    between atoms: S_10  and  C_16 
ROOT
HETATM    1  C   UNL     1       3.994  -1.948   0.000  1.00  0.00    -0.141 C 
HETATM    2  C   UNL     1       2.591  -2.477   0.000  1.00  0.00     0.128 C 
HETATM    3  C   UNL     1       5.398  -1.419   0.000  1.00  0.00     0.077 C 
ENDROOT
BRANCH   2   4
HETATM    4  S   UNL     1       1.431  -1.526   0.000  1.00  0.00    -0.061 SA
BRANCH   4   5
HETATM    5  C   UNL     1       1.675  -0.046   0.000  1.00  0.00     0.204 A 
HETATM    6  N   UNL     1       0.620   1.021   0.000  1.00  0.00    -0.223 N 
HETATM    7  N   UNL     1       1.309   2.353   0.000  1.00  0.00     0.002 NA
HETATM    8  N   UNL     1       2.789   2.110   0.000  1.00  0.00     0.019 NA
HETATM    9  N   UNL     1       3.015   0.627   0.000  1.00  0.00    -0.135 NA
BRANCH   6  10
HETATM   10  C   UNL     1      -0.863   0.795   0.000  1.00  0.00     0.041 A 
HETATM   11  C   UNL     1      -1.800   1.966   0.000  1.00  0.00     0.046 A 
HETATM   12  C   UNL     1      -3.283   1.741   0.000  1.00  0.00     0.038 A 
HETATM   13  C   UNL     1      -3.829   0.343   0.000  1.00  0.00     0.005 A 
HETATM   14 BR   UNL     1      -5.311   0.118   0.000  1.00  0.00    -0.054 Br
HETATM   15  C   UNL     1      -2.892  -0.828   0.000  1.00  0.00    -0.036 A 
HETATM   16  C   UNL     1      -1.409  -0.602   0.000  1.00  0.00     0.063 A 
HETATM   17  C   UNL     1      -3.438  -2.225   0.000  1.00  0.00     0.027 C 
ENDBRANCH   6  10
ENDBRANCH   4   5
ENDBRANCH   2   4
TORSDOF 3
