REMARK  2 active torsions:
REMARK  status: ('A' for Active; 'I' for Inactive)
REMARK    1  A    between atoms: C_6  and  C_18 
REMARK    2  A    between atoms: C_8  and  C_18 
ROOT
HETATM    1  C   UNL     1       7.024  -0.275   0.000  1.00  0.00     0.115 A 
HETATM    2  C   UNL     1       5.524  -0.275   0.000  1.00  0.00    -0.019 A 
HETATM    3  C   UNL     1       7.774   1.024   0.000  1.00  0.00    -0.019 A 
HETATM    4  C   UNL     1       7.024   2.324   0.000  1.00  0.00     0.025 A 
HETATM    5  C   UNL     1       4.774   1.024   0.000  1.00  0.00     0.025 A 
HETATM    6  C   UNL     1       5.524   2.324   0.000  1.00  0.00     0.013 A 
HETATM    7  O   UNL     1       7.774  -1.574   0.000  1.00  0.00    -0.192 OA
HETATM    8  C   UNL     1       4.774  -1.573   0.000  1.00  0.00     0.029 C 
HETATM    9  C   UNL     1       9.274   1.024   0.000  1.00  0.00     0.029 C 
ENDROOT
BRANCH   6  10
HETATM   10  C   UNL     1       4.774   3.623   0.000  1.00  0.00     0.037 C 
BRANCH  10  11
HETATM   11  C   UNL     1       5.524   4.922   0.000  1.00  0.00     0.051 A 
HETATM   12  S   UNL     1       7.016   5.078   0.000  1.00  0.00    -0.060 SA
HETATM   13  C   UNL     1       7.328   6.546   0.000  1.00  0.00     0.145 A 
HETATM   14  N   UNL     1       6.029   7.296   0.000  1.00  0.00    -0.319 N 
HETATM   15  S   UNL     1       8.698   7.156   0.000  1.00  0.00    -0.052 SA
HETATM   16  C   UNL     1       4.914   6.292   0.000  1.00  0.00     0.194 A 
HETATM   17  H   UNL     1       5.872   8.787   0.000  1.00  0.00     0.169 HD
HETATM   18  O   UNL     1       3.447   6.604   0.000  1.00  0.00    -0.171 OA
ENDBRANCH  10  11
ENDBRANCH   6  10
TORSDOF 2
