REMARK  1 active torsions:
REMARK  status: ('A' for Active; 'I' for Inactive)
REMARK    1  A    between atoms: C_5  and  C_7 
ROOT
HETATM    1  C   UNL     1       5.250   3.348   0.000  1.00  0.00     0.193 A 
HETATM    2  O   UNL     1       6.000   4.647   0.000  1.00  0.00    -0.232 OA
HETATM    3  C   UNL     1       7.500   2.049   0.000  1.00  0.00     0.069 A 
HETATM    4  C   UNL     1       8.250   0.750   0.000  1.00  0.00     0.052 A 
HETATM    5  C   UNL     1       8.250   3.348   0.000  1.00  0.00     0.067 A 
HETATM    6 CL   UNL     1       7.500   4.647   0.000  1.00  0.00    -0.019 Cl
HETATM    7  C   UNL     1       9.750   3.348   0.000  1.00  0.00     0.074 A 
HETATM    8  C   UNL     1       9.750   0.750   0.000  1.00  0.00     0.040 A 
HETATM    9  C   UNL     1      10.500   2.049   0.000  1.00  0.00     0.019 A 
HETATM   10 CL   UNL     1      12.000   2.049   0.000  1.00  0.00    -0.091 Cl
HETATM   11  N   UNL     1       6.000   2.049   0.000  1.00  0.00    -0.225 NA
ENDROOT
BRANCH   1  12
HETATM   12  C   UNL     1       3.750   3.348   0.000  1.00  0.00     0.029 A 
HETATM   13  C   UNL     1       3.000   4.647   0.000  1.00  0.00     0.031 A 
HETATM   14  C   UNL     1       1.500   4.647   0.000  1.00  0.00     0.005 A 
HETATM   15  C   UNL     1       0.750   3.348   0.000  1.00  0.00     0.006 A 
HETATM   16  C   UNL     1       1.500   2.049   0.000  1.00  0.00     0.041 A 
HETATM   17  C   UNL     1       3.000   2.049   0.000  1.00  0.00     0.047 A 
HETATM   18  N   UNL     1       3.750   0.750   0.000  1.00  0.00    -0.105 NA
ENDBRANCH   1  12
TORSDOF 1
