REMARK  0 active torsions:
REMARK  status: ('A' for Active; 'I' for Inactive)
ROOT
HETATM    1 CL   UNL     1       1.399   0.924   0.000  1.00  0.00     0.037 Cl
HETATM    2 CL   UNL     1       2.150   2.223   0.000  1.00  0.00     0.037 Cl
HETATM    3  N   UNL     1       2.150  -0.375   0.000  1.00  0.00    -0.179 NA
HETATM    4  C   UNL     1       3.650  -0.375   0.000  1.00  0.00     0.087 A 
HETATM    5  N   UNL     1       3.650   2.223   0.000  1.00  0.00    -0.179 NA
HETATM    6  C   UNL     1       4.399   0.924   0.000  1.00  0.00     0.087 A 
HETATM    7  C   UNL     1       4.399  -1.674   0.000  1.00  0.00     0.048 A 
HETATM    8  C   UNL     1       5.899  -1.674   0.000  1.00  0.00     0.007 A 
HETATM    9  C   UNL     1       5.899   0.924   0.000  1.00  0.00     0.048 A 
HETATM   10  C   UNL     1       6.649  -0.375   0.000  1.00  0.00     0.007 A 
ENDROOT
TORSDOF 0
