REMARK  0 active torsions:
REMARK  status: ('A' for Active; 'I' for Inactive)
ROOT
HETATM    1  C   UNL     1       4.668   9.000   0.000  1.00  0.00     0.108 A 
HETATM    2  C   UNL     1       4.668   7.500   0.000  1.00  0.00     0.115 A 
HETATM    3  C   UNL     1       4.668   4.500   0.000  1.00  0.00     0.115 A 
HETATM    4  C   UNL     1       4.668   3.000   0.000  1.00  0.00     0.108 A 
HETATM    5  C   UNL     1       5.967   9.750   0.000  1.00  0.00     0.117 A 
HETATM    6  C   UNL     1       5.967   6.750   0.000  1.00  0.00     0.023 A 
HETATM    7  C   UNL     1       5.967   5.250   0.000  1.00  0.00     0.023 A 
HETATM    8  C   UNL     1       5.967   2.250   0.000  1.00  0.00     0.117 A 
HETATM    9  C   UNL     1       7.266   7.500   0.000  1.00  0.00     0.005 A 
HETATM   10  C   UNL     1       7.266   4.500   0.000  1.00  0.00     0.005 A 
HETATM   11  C   UNL     1       7.266   3.000   0.000  1.00  0.00     0.047 A 
HETATM   12  C   UNL     1       7.266   9.000   0.000  1.00  0.00     0.047 A 
HETATM   13  C   UNL     1       8.565   6.750   0.000  1.00  0.00     0.000 A 
HETATM   14  C   UNL     1       8.565   9.750   0.000  1.00  0.00     0.135 A 
HETATM   15  C   UNL     1       8.565   5.250   0.000  1.00  0.00     0.000 A 
HETATM   16  C   UNL     1       8.565   2.250   0.000  1.00  0.00     0.135 A 
HETATM   17  C   UNL     1       9.864   4.500   0.000  1.00  0.00     0.004 A 
HETATM   18  C   UNL     1       9.864   3.000   0.000  1.00  0.00     0.051 A 
HETATM   19  C   UNL     1       9.864   9.000   0.000  1.00  0.00     0.051 A 
HETATM   20  C   UNL     1       9.864   7.500   0.000  1.00  0.00     0.004 A 
HETATM   21  O   UNL     1      11.163   6.750   0.000  1.00  0.00     0.000 OA
HETATM   22  C   UNL     1      11.163   9.750   0.000  1.00  0.00     0.129 A 
HETATM   23  C   UNL     1      11.163   2.250   0.000  1.00  0.00     0.129 A 
HETATM   24  O   UNL     1      11.163  11.250   0.000  1.00  0.00    -0.190 OA
HETATM   25  O   UNL     1      11.163   0.750   0.000  1.00  0.00    -0.190 OA
HETATM   26  O   UNL     1      11.163   5.250   0.000  1.00  0.00     0.000 OA
HETATM   27  C   UNL     1      12.462   4.500   0.000  1.00  0.00    -0.028 A 
HETATM   28  C   UNL     1      12.462   7.500   0.000  1.00  0.00    -0.028 A 
HETATM   29  C   UNL     1      12.462   3.000   0.000  1.00  0.00    -0.001 A 
HETATM   30  C   UNL     1      12.462   9.000   0.000  1.00  0.00    -0.001 A 
HETATM   31  O   UNL     1       3.369   6.750   0.000  1.00  0.00    -0.194 OA
HETATM   32  O   UNL     1       3.369   5.250   0.000  1.00  0.00    -0.194 OA
HETATM   33  O   UNL     1       5.967  11.250   0.000  1.00  0.00    -0.194 OA
HETATM   34  O   UNL     1       5.967   0.750   0.000  1.00  0.00    -0.194 OA
HETATM   35  O   UNL     1       8.565  11.250   0.000  1.00  0.00    -0.190 OA
HETATM   36  O   UNL     1       8.565   0.750   0.000  1.00  0.00    -0.190 OA
HETATM   37  C   UNL     1      13.761   9.750   0.000  1.00  0.00     0.033 C 
HETATM   38  C   UNL     1      13.761   2.250   0.000  1.00  0.00     0.033 C 
HETATM   39  C   UNL     1      13.761   5.250   0.000  1.00  0.00     0.030 A 
HETATM   40  C   UNL     1      13.761   6.750   0.000  1.00  0.00     0.030 A 
ENDROOT
TORSDOF 0
