REMARK  1 active torsions:
REMARK  status: ('A' for Active; 'I' for Inactive)
REMARK    1  A    between atoms: O_5  and  C_11 
ROOT
HETATM    1  C   UNL     1       1.674   1.399   0.000  1.00  0.00     0.007 A 
HETATM    2  C   UNL     1       1.674  -0.101   0.000  1.00  0.00     0.007 A 
HETATM    3  C   UNL     1       2.973   2.150   0.000  1.00  0.00     0.047 A 
HETATM    4  C   UNL     1       2.973  -0.851   0.000  1.00  0.00     0.049 A 
HETATM    5  C   UNL     1       4.272   1.399   0.000  1.00  0.00     0.080 A 
HETATM    6  C   UNL     1       4.272  -0.101   0.000  1.00  0.00     0.094 A 
HETATM    7  N   UNL     1       5.571   2.150   0.000  1.00  0.00    -0.187 N 
HETATM    8  O   UNL     1       6.870   4.400   0.000  1.00  0.00    -0.143 OA
HETATM    9  N   UNL     1       5.571  -0.851   0.000  1.00  0.00    -0.152 NA
HETATM   10  C   UNL     1       5.571   3.650   0.000  1.00  0.00     0.320 A 
HETATM   11  N   UNL     1       6.870  -0.100   0.000  1.00  0.00    -0.152 N 
HETATM   12  N   UNL     1       6.870   1.400   0.000  1.00  0.00    -0.132 N 
HETATM   13  O   UNL     1       8.169   3.650   0.000  1.00  0.00    -0.162 OA
HETATM   14  C   UNL     1       8.169   2.150   0.000  1.00  0.00     0.276 A 
HETATM   15  O   UNL     1       9.468   1.400   0.000  1.00  0.00     0.000 OA
HETATM   16  C   UNL     1       8.169  -0.850   0.000  1.00  0.00     0.076 A 
HETATM   17  C   UNL     1       9.468  -0.100   0.000  1.00  0.00    -0.010 A 
HETATM   18  C   UNL     1      10.767  -0.850   0.000  1.00  0.00     0.027 A 
HETATM   19  C   UNL     1      10.767  -2.350   0.000  1.00  0.00     0.005 A 
HETATM   20  C   UNL     1       9.468  -3.100   0.000  1.00  0.00     0.007 A 
HETATM   21  C   UNL     1       8.169  -2.350   0.000  1.00  0.00     0.047 A 
HETATM   22  C   UNL     1      10.767   2.150   0.000  1.00  0.00     0.000 C 
ENDROOT
BRANCH  10  23
HETATM   23  O   UNL     1       4.272   4.399   0.000  1.00  0.00    -0.292 OA
HETATM   24  C   UNL     1       4.272   5.899   0.000  1.00  0.00     0.185 C 
ENDBRANCH  10  23
TORSDOF 1
