REMARK  1 active torsions:
REMARK  status: ('A' for Active; 'I' for Inactive)
REMARK    1  A    between atoms: C_14  and  C_16 
ROOT
HETATM    1  C   UNL     1       0.750   3.000   0.000  1.00  0.00     0.045 A 
HETATM    2  C   UNL     1       0.750   1.500   0.000  1.00  0.00     0.007 A 
HETATM    3  N   UNL     1       2.049   5.250   0.000  1.00  0.00    -0.254 NA
HETATM    4  C   UNL     1       2.049   3.750   0.000  1.00  0.00     0.056 A 
HETATM    5  C   UNL     1       2.049   0.750   0.000  1.00  0.00     0.005 A 
HETATM    6  C   UNL     1       3.348   6.000   0.000  1.00  0.00     0.060 A 
HETATM    7  C   UNL     1       3.348   3.000   0.000  1.00  0.00     0.009 A 
HETATM    8  C   UNL     1       3.348   1.500   0.000  1.00  0.00     0.029 A 
HETATM    9  C   UNL     1       4.647   5.250   0.000  1.00  0.00     0.023 A 
HETATM   10  C   UNL     1       4.647   3.750   0.000  1.00  0.00     0.079 A 
HETATM   11  N   UNL     1       5.946   3.000   0.000  1.00  0.00    -0.250 NA
HETATM   12  C   UNL     1       5.946   6.000   0.000  1.00  0.00    -0.035 A 
HETATM   13  C   UNL     1       7.245   5.250   0.000  1.00  0.00     0.068 A 
HETATM   14  C   UNL     1       7.245   3.750   0.000  1.00  0.00     0.065 A 
HETATM   15  C   UNL     1       3.348   7.500   0.000  1.00  0.00     0.052 C 
HETATM   16  C   UNL     1       5.946   7.500   0.000  1.00  0.00     0.027 C 
ENDROOT
BRANCH  14  17
HETATM   17  C   UNL     1       8.544   3.000   0.000  1.00  0.00     0.040 A 
HETATM   18  C   UNL     1       8.544   1.500   0.000  1.00  0.00     0.061 A 
HETATM   19  N   UNL     1       9.843   0.750   0.000  1.00  0.00    -0.254 NA
HETATM   20  C   UNL     1       7.245   0.750   0.000  1.00  0.00     0.052 C 
HETATM   21  C   UNL     1      11.142   1.500   0.000  1.00  0.00     0.056 A 
HETATM   22  C   UNL     1      11.142   3.000   0.000  1.00  0.00     0.004 A 
HETATM   23  C   UNL     1      12.441   0.750   0.000  1.00  0.00     0.045 A 
HETATM   24  C   UNL     1       9.843   3.750   0.000  1.00  0.00     0.070 A 
HETATM   25  C   UNL     1      12.441   3.750   0.000  1.00  0.00     0.029 A 
HETATM   26  N   UNL     1       9.843   5.250   0.000  1.00  0.00    -0.101 NA
HETATM   27  C   UNL     1      13.740   3.000   0.000  1.00  0.00     0.005 A 
HETATM   28  C   UNL     1      13.740   1.500   0.000  1.00  0.00     0.007 A 
ENDBRANCH  14  17
TORSDOF 1
