REMARK  1 active torsions:
REMARK  status: ('A' for Active; 'I' for Inactive)
REMARK    1  A    between atoms: O_14  and  C_16 
ROOT
HETATM    1  C   UNL     1       2.679   2.319   0.000  1.00  0.00     0.012 A 
HETATM    2  C   UNL     1       2.679   0.819   0.000  1.00  0.00     0.058 A 
HETATM    3  C   UNL     1       3.979   3.069   0.000  1.00  0.00     0.030 A 
HETATM    4  C   UNL     1       3.979   0.069   0.000  1.00  0.00     0.133 A 
HETATM    5  F   UNL     1       3.979  -1.431   0.000  1.00  0.00    -0.207 F 
HETATM    6  C   UNL     1       5.278   2.319   0.000  1.00  0.00     0.021 A 
HETATM    7  C   UNL     1       5.278   0.819   0.000  1.00  0.00     0.082 A 
HETATM    8  C   UNL     1       6.577   3.069   0.000  1.00  0.00     0.131 A 
HETATM    9  N   UNL     1       6.577   0.069   0.000  1.00  0.00    -0.324 N 
HETATM   10  O   UNL     1       6.577   4.569   0.000  1.00  0.00    -0.190 OA
HETATM   11  C   UNL     1       7.876   0.819   0.000  1.00  0.00     0.061 A 
HETATM   12  C   UNL     1       7.876   2.319   0.000  1.00  0.00     0.059 A 
HETATM   13  C   UNL     1       9.175   0.069   0.000  1.00  0.00     0.012 A 
HETATM   14  C   UNL     1       9.175  -1.431   0.000  1.00  0.00     0.032 A 
HETATM   15  C   UNL     1       9.175   3.069   0.000  1.00  0.00     0.082 A 
HETATM   16  C   UNL     1      10.474   2.319   0.000  1.00  0.00     0.102 A 
HETATM   17  C   UNL     1      10.474   0.819   0.000  1.00  0.00     0.075 A 
HETATM   18  C   UNL     1      10.474  -2.181   0.000  1.00  0.00     0.033 A 
HETATM   19  C   UNL     1      11.773  -1.431   0.000  1.00  0.00     0.099 A 
HETATM   20  O   UNL     1      11.773   0.069   0.000  1.00  0.00    -0.340 OA
HETATM   21  C   UNL     1       6.577  -1.431   0.000  1.00  0.00     0.131 C 
HETATM   22  C   UNL     1      12.286  -2.841   0.000  1.00  0.00     0.030 C 
HETATM   23  C   UNL     1      13.250  -1.171   0.000  1.00  0.00     0.030 C 
ENDROOT
BRANCH  15  24
HETATM   24  O   UNL     1       9.175   4.569   0.000  1.00  0.00    -0.332 OA
HETATM   25  C   UNL     1      10.474   5.319   0.000  1.00  0.00     0.181 C 
ENDBRANCH  15  24
TORSDOF 1
