REMARK  5 active torsions:
REMARK  status: ('A' for Active; 'I' for Inactive)
REMARK    1  A    between atoms: O_1  and  C_2 
REMARK    2  A    between atoms: O_1  and  C_17 
REMARK    3  A    between atoms: C_2  and  C_4 
REMARK    4  A    between atoms: C_8  and  C_9 
REMARK    5  A    between atoms: C_15  and  C_20 
ROOT
HETATM    1  O   UNL     1      -1.056  -0.485   0.000  1.00  0.00    -0.309 OA
HETATM    2  C   UNL     1      -0.004  -1.554   0.000  1.00  0.00     0.127 A 
HETATM    3  C   UNL     1      -0.363   0.846   0.000  1.00  0.00     0.107 A 
HETATM    4  C   UNL     1       1.116   0.599   0.000  1.00  0.00     0.107 A 
HETATM    5  O   UNL     1       0.906  -3.988   0.000  1.00  0.00    -0.304 OA
HETATM    6  C   UNL     1       1.338  -0.885   0.000  1.00  0.00     0.107 A 
HETATM    7  C   UNL     1       2.199  -3.226   0.000  1.00  0.00     0.191 A 
HETATM    8  O   UNL     1       2.185  -1.726   0.000  1.00  0.00    -0.288 OA
HETATM    9  C   UNL     1      -0.251  -3.034   0.000  1.00  0.00     0.204 A 
ENDROOT
BRANCH   3  10
HETATM   10  C   UNL     1      -1.033   2.188   0.000  1.00  0.00     0.126 A 
HETATM   11  N   UNL     1      -2.513   2.435   0.000  1.00  0.00    -0.237 NA
HETATM   12  C   UNL     1      -2.735   3.919   0.000  1.00  0.00     0.119 A 
HETATM   13  C   UNL     1      -1.393   4.588   0.000  1.00  0.00     0.114 A 
HETATM   14  S   UNL     1      -0.341   3.519   0.000  1.00  0.00    -0.087 SA
BRANCH  12  15
HETATM   15  C   UNL     1      -4.065   4.611   0.000  1.00  0.00     0.243 C 
HETATM   16  O   UNL     1      -4.131   6.110   0.000  1.00  0.00    -0.162 OA
BRANCH  15  17
HETATM   17  O   UNL     1      -5.330   3.805   0.000  1.00  0.00    -0.308 OA
BRANCH  17  18
HETATM   18  C   UNL     1      -6.661   4.497   0.000  1.00  0.00     0.151 C 
HETATM   19  C   UNL     1      -6.727   5.996   0.000  1.00  0.00     0.035 C 
ENDBRANCH  17  18
ENDBRANCH  15  17
ENDBRANCH  12  15
ENDBRANCH   3  10
BRANCH   7  20
HETATM   20  C   UNL     1       3.504  -3.964   0.000  1.00  0.00     0.002 A 
HETATM   21  C   UNL     1       3.518  -5.464   0.000  1.00  0.00     0.026 A 
HETATM   22  C   UNL     1       4.823  -6.203   0.000  1.00  0.00     0.004 A 
HETATM   23  C   UNL     1       6.116  -5.441   0.000  1.00  0.00     0.001 A 
HETATM   24  C   UNL     1       6.102  -3.941   0.000  1.00  0.00     0.004 A 
HETATM   25  C   UNL     1       4.796  -3.203   0.000  1.00  0.00     0.026 A 
ENDBRANCH   7  20
TORSDOF 5
