REMARK  5 active torsions:
REMARK  status: ('A' for Active; 'I' for Inactive)
REMARK    1  A    between atoms: C_7  and  C_13 
REMARK    2  A    between atoms: C_8  and  C_9 
REMARK    3  A    between atoms: C_9  and  O_11 
REMARK    4  A    between atoms: C_13  and  C_14 
REMARK    5  A    between atoms: C_14  and  O_16 
ROOT
HETATM    1  O   UNL     1       2.602   3.750   0.000  1.00  0.00    -0.151 OA
HETATM    2  H   UNL     1       3.281   0.558   0.000  1.00  0.00     0.170 HD
HETATM    3  N   UNL     1       4.284   1.673   0.000  1.00  0.00    -0.314 N 
HETATM    4  H   UNL     1       5.428   5.382   0.000  1.00  0.00     0.169 HD
HETATM    5  N   UNL     1       5.271   3.890   0.000  1.00  0.00    -0.320 N 
HETATM    6  C   UNL     1       3.972   3.140   0.000  1.00  0.00     0.256 A 
HETATM    7  C   UNL     1       6.386   2.886   0.000  1.00  0.00     0.061 A 
HETATM    8  C   UNL     1       5.776   1.516   0.000  1.00  0.00     0.121 A 
ENDROOT
BRANCH   7   9
HETATM    9  C   UNL     1       7.853   3.199   0.000  1.00  0.00     0.110 C 
BRANCH   9  10
HETATM   10  C   UNL     1       8.316   4.625   0.000  1.00  0.00     0.275 C 
HETATM   11  O   UNL     1       9.784   4.937   0.000  1.00  0.00    -0.190 OA
BRANCH  10  12
HETATM   12  O   UNL     1       7.313   5.740   0.000  1.00  0.00    -0.326 OA
HETATM   13  C   UNL     1       7.776   7.166   0.000  1.00  0.00     0.177 C 
ENDBRANCH  10  12
ENDBRANCH   9  10
ENDBRANCH   7   9
BRANCH   8  14
HETATM   14  C   UNL     1       6.526   0.217   0.000  1.00  0.00     0.245 C 
HETATM   15  O   UNL     1       8.026   0.217   0.000  1.00  0.00    -0.162 OA
BRANCH  14  16
HETATM   16  O   UNL     1       5.776  -1.082   0.000  1.00  0.00    -0.305 OA
HETATM   17  C   UNL     1       4.276  -1.082   0.000  1.00  0.00     0.184 C 
ENDBRANCH  14  16
ENDBRANCH   8  14
TORSDOF 5
