REMARK  1 active torsions:
REMARK  status: ('A' for Active; 'I' for Inactive)
REMARK    1  A    between atoms: C_2  and  C_7 
ROOT
HETATM    1  C   UNL     1      -2.372  -0.945   0.000  1.00  0.00     0.506 A 
HETATM    2  C   UNL     1      -4.799  -0.945   0.000  1.00  0.00     0.142 A 
HETATM    3  H   UNL     1      -5.217  -3.585   0.000  1.00  0.00     0.184 HD
HETATM    4  N   UNL     1      -3.585  -0.063   0.000  1.00  0.00    -0.202 NA
HETATM    5  N   UNL     1      -4.335  -2.372   0.000  1.00  0.00    -0.283 N 
HETATM    6  N   UNL     1      -2.835  -2.372   0.000  1.00  0.00    -0.063 NA
HETATM    7  N   UNL     1      -0.945  -0.481   0.000  1.00  0.00     0.666 N 
ENDROOT
BRANCH   2   8
HETATM    8  C   UNL     1      -6.225  -0.481   0.000  1.00  0.00    -0.010 A 
HETATM    9  C   UNL     1      -7.340  -1.485   0.000  1.00  0.00     0.025 A 
HETATM   10  C   UNL     1      -8.767  -1.022   0.000  1.00  0.00     0.004 A 
HETATM   11  C   UNL     1      -9.078   0.446   0.000  1.00  0.00     0.001 A 
HETATM   12  C   UNL     1      -7.964   1.449   0.000  1.00  0.00     0.004 A 
HETATM   13  C   UNL     1      -6.537   0.986   0.000  1.00  0.00     0.025 A 
ENDBRANCH   2   8
TORSDOF 1
