REMARK  3 active torsions:
REMARK  status: ('A' for Active; 'I' for Inactive)
REMARK    1  A    between atoms: C_4  and  AS_17 
REMARK    2  A    between atoms: C_9  and  AS_17 
REMARK    3  A    between atoms: C_12  and  N_14 
ROOT
HETATM    1  O   UNL     1      -5.471  -4.024   0.000  1.00  0.00     0.000 OA
HETATM    2 AS   UNL     1      -4.721  -5.324   0.000  1.00  0.00     0.000 As
HETATM    3  O   UNL     1      -3.971  -6.623   0.000  1.00  0.00     0.000 OA
ENDROOT
BRANCH   2   4
HETATM    4  C   UNL     1      -3.422  -4.574   0.000  1.00  0.00    -0.052 A 
HETATM    5  C   UNL     1      -3.422  -3.074   0.000  1.00  0.00     0.024 A 
HETATM    6  C   UNL     1      -2.123  -2.324   0.000  1.00  0.00     0.043 A 
HETATM    7  C   UNL     1      -0.824  -3.074   0.000  1.00  0.00     0.303 A 
HETATM    8  C   UNL     1      -0.824  -4.574   0.000  1.00  0.00     0.043 A 
HETATM    9  N   UNL     1       0.475  -2.324   0.000  1.00  0.00     0.616 N 
HETATM   10  C   UNL     1      -2.123  -5.324   0.000  1.00  0.00     0.024 A 
ENDBRANCH   2   4
BRANCH   2  11
HETATM   11  C   UNL     1      -6.020  -6.074   0.000  1.00  0.00    -0.051 A 
HETATM   12  C   UNL     1      -7.319  -5.324   0.000  1.00  0.00     0.028 A 
HETATM   13  C   UNL     1      -8.618  -6.074   0.000  1.00  0.00     0.050 A 
HETATM   14  C   UNL     1      -8.618  -7.574   0.000  1.00  0.00     0.083 A 
HETATM   15  C   UNL     1      -7.319  -8.324   0.000  1.00  0.00     0.050 A 
HETATM   16  C   UNL     1      -6.020  -7.574   0.000  1.00  0.00     0.028 A 
BRANCH  14  17
HETATM   17  N   UNL     1      -9.917  -8.324   0.000  1.00  0.00    -0.122 N 
HETATM   18  O   UNL     1     -11.216  -7.574   0.000  1.00  0.00    -0.532 OA
HETATM   19  O   UNL     1      -9.917  -9.824   0.000  1.00  0.00    -0.532 OA
ENDBRANCH  14  17
ENDBRANCH   2  11
TORSDOF 3
