REMARK  4 active torsions:
REMARK  status: ('A' for Active; 'I' for Inactive)
REMARK    1  A    between atoms: C_4  and  AS_17 
REMARK    2  A    between atoms: C_5  and  N_19 
REMARK    3  A    between atoms: C_10  and  AS_17 
REMARK    4  A    between atoms: C_12  and  N_14 
REMARK       I    between atoms: N_19  and  C_20 
ROOT
HETATM    1  O   UNL     1       4.620   6.998   0.000  1.00  0.00     0.000 OA
HETATM    2 AS   UNL     1       5.370   5.699   0.000  1.00  0.00     0.000 As
HETATM    3  O   UNL     1       6.120   4.399   0.000  1.00  0.00     0.000 OA
ENDROOT
BRANCH   2   4
HETATM    4  C   UNL     1       6.669   6.449   0.000  1.00  0.00    -0.051 A 
HETATM    5  C   UNL     1       6.669   7.949   0.000  1.00  0.00     0.027 A 
HETATM    6  C   UNL     1       7.968   8.699   0.000  1.00  0.00     0.046 A 
HETATM    7  C   UNL     1       9.267   7.949   0.000  1.00  0.00     0.039 A 
HETATM    8  C   UNL     1       9.267   6.449   0.000  1.00  0.00     0.046 A 
HETATM    9  C   UNL     1       7.968   5.699   0.000  1.00  0.00     0.027 A 
BRANCH   7  10
HETATM   10  N   UNL     1      10.566   8.699   0.000  1.00  0.00    -0.232 NA
HETATM   11  C   UNL     1      10.566  10.199   0.000  1.00  0.00     0.189 C 
HETATM   12  O   UNL     1      11.865  10.949   0.000  1.00  0.00    -0.174 OA
HETATM   13  C   UNL     1       9.267  10.949   0.000  1.00  0.00     0.083 C 
ENDBRANCH   7  10
ENDBRANCH   2   4
BRANCH   2  14
HETATM   14  C   UNL     1       4.071   4.949   0.000  1.00  0.00    -0.051 A 
HETATM   15  C   UNL     1       2.772   5.699   0.000  1.00  0.00     0.028 A 
HETATM   16  C   UNL     1       1.473   4.949   0.000  1.00  0.00     0.050 A 
HETATM   17  C   UNL     1       1.473   3.449   0.000  1.00  0.00     0.083 A 
HETATM   18  C   UNL     1       2.772   2.699   0.000  1.00  0.00     0.050 A 
HETATM   19  C   UNL     1       4.071   3.449   0.000  1.00  0.00     0.028 A 
BRANCH  17  20
HETATM   20  N   UNL     1       0.174   2.699   0.000  1.00  0.00    -0.122 N 
HETATM   21  O   UNL     1      -1.125   3.449   0.000  1.00  0.00    -0.532 OA
HETATM   22  O   UNL     1       0.174   1.199   0.000  1.00  0.00    -0.532 OA
ENDBRANCH  17  20
ENDBRANCH   2  14
TORSDOF 4
