REMARK  1 active torsions:
REMARK  status: ('A' for Active; 'I' for Inactive)
REMARK    1  A    between atoms: C_5  and  C_6 
ROOT
HETATM    1  C   UNL     1      -0.375   6.649   0.000  1.00  0.00     0.085 A 
HETATM    2  C   UNL     1       3.522   5.899   0.000  1.00  0.00     0.076 A 
HETATM    3  C   UNL     1       0.924   5.899   0.000  1.00  0.00     0.083 A 
HETATM    4  C   UNL     1      -1.674   5.899   0.000  1.00  0.00     0.165 A 
HETATM    5  C   UNL     1       3.522   4.399   0.000  1.00  0.00     0.105 A 
HETATM    6  C   UNL     1       0.924   4.399   0.000  1.00  0.00     0.062 A 
HETATM    7  C   UNL     1      -1.674   4.399   0.000  1.00  0.00     0.088 A 
HETATM    8  C   UNL     1       2.223   3.650   0.000  1.00  0.00     0.118 A 
HETATM    9  C   UNL     1      -0.375   3.650   0.000  1.00  0.00     0.114 A 
HETATM   10  O   UNL     1       2.223   6.649   0.000  1.00  0.00    -0.316 OA
HETATM   11  O   UNL     1       2.223   2.150   0.000  1.00  0.00    -0.194 OA
HETATM   12  O   UNL     1      -2.973   6.649   0.000  1.00  0.00    -0.223 OA
HETATM   13  O   UNL     1      -0.375   2.150   0.000  1.00  0.00    -0.195 OA
ENDROOT
BRANCH   2  14
HETATM   14  C   UNL     1       4.821   6.649   0.000  1.00  0.00    -0.025 A 
HETATM   15  C   UNL     1       4.821   8.149   0.000  1.00  0.00     0.026 A 
HETATM   16  C   UNL     1       6.120   8.899   0.000  1.00  0.00     0.037 A 
HETATM   17  C   UNL     1       7.419   8.149   0.000  1.00  0.00     0.153 A 
HETATM   18  C   UNL     1       7.419   6.649   0.000  1.00  0.00     0.037 A 
HETATM   19  O   UNL     1       8.718   8.899   0.000  1.00  0.00    -0.223 OA
HETATM   20  C   UNL     1       6.120   5.899   0.000  1.00  0.00     0.026 A 
ENDBRANCH   2  14
TORSDOF 1
