REMARK  4 active torsions:
REMARK  status: ('A' for Active; 'I' for Inactive)
REMARK    1  A    between atoms: C_6  and  C_19 
REMARK    2  A    between atoms: C_7  and  C_19 
REMARK    3  A    between atoms: C_8  and  N_16 
REMARK    4  A    between atoms: C_9  and  C_10 
ROOT
HETATM    1  C   UNL     1       7.620   0.332   0.000  1.00  0.00     0.048 A 
HETATM    2  C   UNL     1       8.370  -0.967   0.000  1.00  0.00     0.128 A 
HETATM    3  C   UNL     1       9.120   0.332   0.000  1.00  0.00     0.018 A 
ENDROOT
BRANCH   1   4
HETATM    4  C   UNL     1       6.321   1.082   0.000  1.00  0.00     0.125 C 
HETATM    5  O   UNL     1       5.022   0.332   0.000  1.00  0.00    -0.191 OA
BRANCH   4   6
HETATM    6  C   UNL     1       6.321   2.582   0.000  1.00  0.00    -0.019 A 
HETATM    7  C   UNL     1       7.620   3.332   0.000  1.00  0.00     0.024 A 
HETATM    8  C   UNL     1       7.620   4.832   0.000  1.00  0.00     0.004 A 
HETATM    9  C   UNL     1       6.321   5.582   0.000  1.00  0.00     0.001 A 
HETATM   10  C   UNL     1       5.022   4.832   0.000  1.00  0.00     0.004 A 
HETATM   11  C   UNL     1       5.022   3.332   0.000  1.00  0.00     0.024 A 
ENDBRANCH   4   6
ENDBRANCH   1   4
BRANCH   2  12
HETATM   12  N   UNL     1       8.370  -2.467   0.000  1.00  0.00    -0.114 N 
HETATM   13  O   UNL     1       7.071  -3.217   0.000  1.00  0.00    -0.532 OA
HETATM   14  O   UNL     1       9.669  -3.217   0.000  1.00  0.00    -0.532 OA
ENDBRANCH   2  12
BRANCH   3  15
HETATM   15  C   UNL     1      10.419   1.082   0.000  1.00  0.00    -0.043 A 
HETATM   16  C   UNL     1      11.719   0.332   0.000  1.00  0.00     0.022 A 
HETATM   17  C   UNL     1      13.018   1.082   0.000  1.00  0.00     0.004 A 
HETATM   18  C   UNL     1      13.018   2.582   0.000  1.00  0.00     0.001 A 
HETATM   19  C   UNL     1      11.719   3.332   0.000  1.00  0.00     0.004 A 
HETATM   20  C   UNL     1      10.419   2.582   0.000  1.00  0.00     0.022 A 
ENDBRANCH   3  15
TORSDOF 4
