REMARK  5 active torsions:
REMARK  status: ('A' for Active; 'I' for Inactive)
REMARK    1  A    between atoms: C_6  and  C_7 
REMARK    2  A    between atoms: C_10  and  N_14 
REMARK    3  A    between atoms: C_11  and  N_13 
REMARK    4  A    between atoms: N_13  and  C_18 
REMARK    5  A    between atoms: N_14  and  C_15 
ROOT
HETATM    1  C   UNL     1       5.250   4.647   0.000  1.00  0.00     0.192 A 
HETATM    2  N   UNL     1       6.000   5.946   0.000  1.00  0.00    -0.040 NA
HETATM    3  N   UNL     1       6.000   3.348   0.000  1.00  0.00    -0.040 NA
HETATM    4  C   UNL     1       7.500   3.348   0.000  1.00  0.00     0.766 A 
HETATM    5  C   UNL     1       7.500   5.946   0.000  1.00  0.00     0.762 A 
HETATM    6  N   UNL     1       8.250   4.647   0.000  1.00  0.00     0.134 NA
ENDROOT
BRANCH   1   7
HETATM    7  C   UNL     1       3.750   4.647   0.000  1.00  0.00    -0.003 A 
HETATM    8  C   UNL     1       3.000   5.946   0.000  1.00  0.00     0.051 A 
HETATM    9  C   UNL     1       1.500   5.946   0.000  1.00  0.00     0.124 A 
HETATM   10  N   UNL     1       0.750   4.647   0.000  1.00  0.00    -0.295 NA
HETATM   11  C   UNL     1       1.500   3.348   0.000  1.00  0.00     0.124 A 
HETATM   12  C   UNL     1       3.000   3.348   0.000  1.00  0.00     0.051 A 
ENDBRANCH   1   7
BRANCH   5  13
HETATM   13  N   UNL     1       8.250   7.245   0.000  1.00  0.00    -0.085 NA
BRANCH  13  14
HETATM   14  C   UNL     1       9.750   7.245   0.000  1.00  0.00     0.145 C 
HETATM   15  C   UNL     1      10.500   8.544   0.000  1.00  0.00     0.029 C 
ENDBRANCH  13  14
ENDBRANCH   5  13
BRANCH   4  16
HETATM   16  N   UNL     1       8.250   2.049   0.000  1.00  0.00    -0.067 NA
BRANCH  16  17
HETATM   17  C   UNL     1       9.750   2.049   0.000  1.00  0.00     0.056 C 
HETATM   18  C   UNL     1      10.500   3.348   0.000  1.00  0.00     0.048 C 
HETATM   19  C   UNL     1      10.500   0.750   0.000  1.00  0.00     0.048 C 
ENDBRANCH  16  17
ENDBRANCH   4  16
TORSDOF 5
