REMARK  0 active torsions:
REMARK  status: ('A' for Active; 'I' for Inactive)
ROOT
HETATM    1  O   UNL     1       1.420   4.837   0.000  1.00  0.00    -0.298 OA
HETATM    2  O   UNL     1       2.847   6.801   0.000  1.00  0.00    -0.304 OA
HETATM    3  O   UNL     1       4.677   0.263   0.000  1.00  0.00    -0.170 OA
HETATM    4  C   UNL     1       9.695   4.960   0.000  1.00  0.00     0.179 A 
HETATM    5  C   UNL     1       8.204   5.117   0.000  1.00  0.00     0.135 A 
HETATM    6  C   UNL     1      10.306   3.590   0.000  1.00  0.00     0.180 A 
HETATM    7  C   UNL     1       7.322   3.903   0.000  1.00  0.00     0.111 A 
HETATM    8  C   UNL     1       9.424   2.376   0.000  1.00  0.00     0.150 A 
HETATM    9  C   UNL     1       7.932   2.533   0.000  1.00  0.00     0.188 A 
HETATM   10  C   UNL     1       5.830   4.060   0.000  1.00  0.00    -0.031 A 
HETATM   11  C   UNL     1       5.220   5.430   0.000  1.00  0.00     0.075 A 
HETATM   12  C   UNL     1       3.728   5.587   0.000  1.00  0.00     0.103 A 
HETATM   13  C   UNL     1       4.949   2.846   0.000  1.00  0.00     0.063 A 
HETATM   14  C   UNL     1       2.847   4.373   0.000  1.00  0.00     0.141 A 
HETATM   15  C   UNL     1       5.559   1.476   0.000  1.00  0.00     0.210 A 
HETATM   16  C   UNL     1       3.457   3.003   0.000  1.00  0.00     0.158 A 
HETATM   17  C   UNL     1       1.420   6.337   0.000  1.00  0.00     0.304 A 
HETATM   18  O   UNL     1       2.575   1.790   0.000  1.00  0.00    -0.188 OA
HETATM   19  O   UNL     1       7.594   6.487   0.000  1.00  0.00    -0.193 OA
HETATM   20  N   UNL     1       7.051   1.319   0.000  1.00  0.00    -0.250 NA
HETATM   21  O   UNL     1      10.577   6.173   0.000  1.00  0.00    -0.186 OA
HETATM   22  O   UNL     1      10.034   1.006   0.000  1.00  0.00    -0.191 OA
HETATM   23  O   UNL     1      11.797   3.433   0.000  1.00  0.00    -0.186 OA
ENDROOT
TORSDOF 0
