REMARK  0 active torsions:
REMARK  status: ('A' for Active; 'I' for Inactive)
ROOT
HETATM    1  C   UNL     1      -4.647   5.250   0.000  1.00  0.00    -0.025 A 
HETATM    2  C   UNL     1      -3.348   4.500   0.000  1.00  0.00     0.017 A 
HETATM    3  C   UNL     1      -5.946   4.500   0.000  1.00  0.00     0.026 A 
HETATM    4  C   UNL     1      -3.348   3.000   0.000  1.00  0.00     0.030 A 
HETATM    5  C   UNL     1      -5.946   3.000   0.000  1.00  0.00     0.005 A 
HETATM    6  C   UNL     1      -4.647   2.250   0.000  1.00  0.00     0.005 A 
HETATM    7  C   UNL     1      -4.647   0.750   0.000  1.00  0.00     0.000 C 
HETATM    8  C   UNL     1      -2.049   5.250   0.000  1.00  0.00     0.208 A 
HETATM    9  O   UNL     1      -0.750   4.500   0.000  1.00  0.00    -0.170 OA
HETATM   10  N   UNL     1      -2.049   6.750   0.000  1.00  0.00    -0.225 NA
HETATM   11  C   UNL     1      -3.348   7.500   0.000  1.00  0.00     0.057 A 
HETATM   12  C   UNL     1      -4.647   6.750   0.000  1.00  0.00    -0.012 A 
HETATM   13  C   UNL     1      -3.348   9.000   0.000  1.00  0.00     0.052 C 
HETATM   14  C   UNL     1      -5.946   7.500   0.000  1.00  0.00     0.032 C 
ENDROOT
TORSDOF 0
