REMARK  2 active torsions:
REMARK  status: ('A' for Active; 'I' for Inactive)
REMARK    1  A    between atoms: O_10  and  C_12 
REMARK    2  A    between atoms: N_16  and  C_17 
ROOT
HETATM    1  C   UNL     1       3.520   2.298   0.000  1.00  0.00     0.028 A 
HETATM    2  C   UNL     1       3.520   0.798   0.000  1.00  0.00     0.149 A 
HETATM    3  C   UNL     1       4.819   3.048   0.000  1.00  0.00     0.003 A 
HETATM    4  O   UNL     1       4.819   0.048   0.000  1.00  0.00    -0.312 OA
HETATM    5  O   UNL     1       6.118   2.298   0.000  1.00  0.00     0.000 OA
HETATM    6  P   UNL     1       6.118   0.798   0.000  1.00  0.00     0.252 P 
HETATM    7  S   UNL     1       7.417   1.548   0.000  1.00  0.00    -0.016 SA
HETATM    8  O   UNL     1       6.868  -0.501   0.000  1.00  0.00    -0.282 OA
HETATM    9  C   UNL     1       8.368  -0.501   0.000  1.00  0.00     0.152 A 
HETATM   10  C   UNL     1       9.118   0.798   0.000  1.00  0.00     0.159 A 
HETATM   11  C   UNL     1       9.118  -1.800   0.000  1.00  0.00     0.163 A 
HETATM   12  N   UNL     1      10.618   0.798   0.000  1.00  0.00    -0.155 NA
HETATM   13  C   UNL     1      10.618  -1.800   0.000  1.00  0.00     0.238 A 
HETATM   14  O   UNL     1      11.368  -3.099   0.000  1.00  0.00    -0.167 OA
HETATM   15  N   UNL     1      11.368  -0.501   0.000  1.00  0.00    -0.212 N 
HETATM   16  C   UNL     1       3.007   3.708   0.000  1.00  0.00     0.003 C 
HETATM   17  C   UNL     1       2.042   2.038   0.000  1.00  0.00     0.003 C 
ENDROOT
BRANCH  15  18
HETATM   18  C   UNL     1      12.868  -0.501   0.000  1.00  0.00     0.041 A 
HETATM   19  C   UNL     1      13.618   0.798   0.000  1.00  0.00     0.042 A 
HETATM   20  C   UNL     1      15.118   0.798   0.000  1.00  0.00     0.006 A 
HETATM   21  C   UNL     1      15.868  -0.501   0.000  1.00  0.00     0.001 A 
HETATM   22  C   UNL     1      15.118  -1.800   0.000  1.00  0.00     0.006 A 
HETATM   23  C   UNL     1      13.618  -1.800   0.000  1.00  0.00     0.042 A 
ENDBRANCH  15  18
BRANCH  11  24
HETATM   24  O   UNL     1       8.368  -3.099   0.000  1.00  0.00    -0.323 OA
HETATM   25  C   UNL     1       6.868  -3.099   0.000  1.00  0.00     0.182 C 
ENDBRANCH  11  24
TORSDOF 2
