REMARK  11 active torsions:
REMARK  status: ('A' for Active; 'I' for Inactive)
REMARK    1  A    between atoms: C_5  and  O_11 
REMARK    2  A    between atoms: C_8  and  C_28 
REMARK    3  A    between atoms: C_13  and  N_29 
REMARK    4  A    between atoms: C_14  and  C_15 
REMARK    5  A    between atoms: C_14  and  C_28 
REMARK    6  A    between atoms: C_14  and  C_18 
REMARK    7  A    between atoms: C_20  and  C_23 
REMARK    8  A    between atoms: C_21  and  C_24 
REMARK    9  A    between atoms: C_22  and  C_25 
REMARK   10  A    between atoms: C_23  and  C_25 
REMARK   11  A    between atoms: C_24  and  C_25 
ROOT
HETATM    1  C   UNL     1      -0.921  -0.057   0.000  1.00  0.00    -0.030 A 
HETATM    2  N   UNL     1      -0.921   0.774   0.000  1.00  0.00     0.000 N 
HETATM    3  C   UNL     1      -0.202  -0.471   0.000  1.00  0.00     0.026 A 
HETATM    4  C   UNL     1       0.517  -0.057   0.000  1.00  0.00     0.004 A 
HETATM    5  C   UNL     1       0.517   0.774   0.000  1.00  0.00     0.000 A 
HETATM    6  C   UNL     1      -0.202   1.189   0.000  1.00  0.00     0.000 A 
HETATM    7  N   UNL     1       1.237  -0.471   0.000  1.00  0.00     0.000 N 
HETATM    8  C   UNL     1       1.956  -0.057   0.000  1.00  0.00     0.000 A 
HETATM    9  N   UNL     1       1.956   0.774   0.000  1.00  0.00     0.000 N 
HETATM   10  C   UNL     1       1.237   1.189   0.000  1.00  0.00     0.000 A 
HETATM   11  O   UNL     1      -0.202   2.019   0.000  1.00  0.00     0.000 OA
HETATM   12  C   UNL     1       2.676   1.189   0.000  1.00  0.00     0.004 A 
HETATM   13  C   UNL     1       3.396   0.774   0.000  1.00  0.00     0.004 A 
HETATM   14  C   UNL     1       3.396  -0.057   0.000  1.00  0.00     0.004 A 
HETATM   15  C   UNL     1       4.115  -0.471   0.000  1.00  0.00     0.004 A 
HETATM   16  C   UNL     1       4.835  -0.057   0.000  1.00  0.00     0.004 A 
HETATM   17  C   UNL     1       4.835   0.774   0.000  1.00  0.00     0.018 A 
HETATM   18  C   UNL     1       4.115   1.189   0.000  1.00  0.00     0.015 A 
HETATM   19  C   UNL     1      -1.640   1.189   0.000  1.00  0.00     0.000 A 
HETATM   20  C   UNL     1      -2.359   0.774   0.000  1.00  0.00     0.000 A 
HETATM   21  C   UNL     1      -3.077   1.189   0.000  1.00  0.00     0.000 A 
HETATM   22  C   UNL     1      -3.796   0.774   0.000  1.00  0.00     0.000 A 
HETATM   23  C   UNL     1      -3.796  -0.056   0.000  1.00  0.00     0.000 A 
HETATM   24  C   UNL     1      -3.077  -0.470   0.000  1.00  0.00     0.000 A 
HETATM   25  C   UNL     1      -2.359  -0.056   0.000  1.00  0.00     0.000 A 
HETATM   26  C   UNL     1       4.115   2.019   0.000  1.00  0.00    -0.053 A 
HETATM   27  C   UNL     1       1.410  -1.284   0.000  1.00  0.00     0.000 A 
HETATM   28  C   UNL     1       2.235  -1.371   0.000  1.00  0.00     0.000 A 
HETATM   29  N   UNL     1       2.573  -0.612   0.000  1.00  0.00     0.000 N 
ENDROOT
TORSDOF 11
