REMARK  1 active torsions:
REMARK  status: ('A' for Active; 'I' for Inactive)
REMARK    1  A    between atoms: C_9  and  O_10 
ROOT
HETATM    1  C   UNL     1      -4.821  -5.149   0.000  1.00  0.00     0.077 A 
HETATM    2  C   UNL     1      -4.821  -6.649   0.000  1.00  0.00     0.137 A 
HETATM    3  O   UNL     1      -3.522  -2.900   0.000  1.00  0.00    -0.306 OA
HETATM    4  C   UNL     1      -3.522  -4.399   0.000  1.00  0.00     0.078 A 
HETATM    5  N   UNL     1      -3.522  -7.399   0.000  1.00  0.00    -0.223 N 
HETATM    6  O   UNL     1      -3.522  -8.899   0.000  1.00  0.00    -0.089 OA
HETATM    7  C   UNL     1      -2.223  -5.149   0.000  1.00  0.00     0.067 A 
HETATM    8  C   UNL     1      -2.223  -6.649   0.000  1.00  0.00     0.162 A 
HETATM    9  C   UNL     1      -0.924  -4.399   0.000  1.00  0.00     0.196 A 
HETATM   10  O   UNL     1      -0.924  -2.900   0.000  1.00  0.00    -0.280 OA
HETATM   11  C   UNL     1      -2.223  -2.150   0.000  1.00  0.00     0.305 A 
ENDROOT
BRANCH   9  12
HETATM   12  O   UNL     1       0.375  -5.149   0.000  1.00  0.00    -0.308 OA
HETATM   13  C   UNL     1       1.674  -4.399   0.000  1.00  0.00     0.184 C 
ENDBRANCH   9  12
TORSDOF 1
