REMARK  3 active torsions:
REMARK  status: ('A' for Active; 'I' for Inactive)
REMARK    1  A    between atoms: C_6  and  C_8 
REMARK       I    between atoms: C_8  and  N_15 
REMARK    2  A    between atoms: C_9  and  N_15 
REMARK    3  A    between atoms: C_10  and  C_16 
ROOT
HETATM    1  C   UNL     1       7.500   3.348   0.000  1.00  0.00     0.057 A 
HETATM    2  C   UNL     1       8.250   4.647   0.000  1.00  0.00    -0.016 A 
HETATM    3  C   UNL     1       8.250   2.049   0.000  1.00  0.00     0.045 A 
HETATM    4  C   UNL     1       9.750   2.049   0.000  1.00  0.00     0.006 A 
HETATM    5  C   UNL     1       9.750   4.647   0.000  1.00  0.00     0.027 A 
HETATM    6  C   UNL     1      10.500   3.348   0.000  1.00  0.00     0.005 A 
HETATM    7  C   UNL     1      10.500   0.750   0.000  1.00  0.00     0.000 C 
ENDROOT
BRANCH   1   8
HETATM    8  N   UNL     1       6.000   3.348   0.000  1.00  0.00    -0.225 NA
HETATM    9  C   UNL     1       5.250   2.049   0.000  1.00  0.00     0.205 C 
HETATM   10  O   UNL     1       6.000   0.750   0.000  1.00  0.00    -0.170 OA
BRANCH   9  11
HETATM   11  C   UNL     1       3.750   2.049   0.000  1.00  0.00     0.004 A 
HETATM   12  C   UNL     1       3.000   0.750   0.000  1.00  0.00     0.052 A 
HETATM   13  C   UNL     1       1.500   0.750   0.000  1.00  0.00     0.124 A 
HETATM   14  N   UNL     1       0.750   2.049   0.000  1.00  0.00    -0.295 NA
HETATM   15  C   UNL     1       1.500   3.348   0.000  1.00  0.00     0.124 A 
HETATM   16  C   UNL     1       3.000   3.348   0.000  1.00  0.00     0.052 A 
ENDBRANCH   9  11
ENDBRANCH   1   8
BRANCH   2  17
HETATM   17  C   UNL     1       7.500   5.946   0.000  1.00  0.00    -0.046 C 
HETATM   18  C   UNL     1       8.250   7.245   0.000  1.00  0.00     0.026 C 
HETATM   19  C   UNL     1       6.000   5.946   0.000  1.00  0.00     0.026 C 
ENDBRANCH   2  17
TORSDOF 3
