REMARK  3 active torsions:
REMARK  status: ('A' for Active; 'I' for Inactive)
REMARK    1  A    between atoms: C_6  and  C_7 
REMARK    2  A    between atoms: N_9  and  C_14 
REMARK    3  A    between atoms: C_14  and  C_15 
ROOT
HETATM    1  C   UNL     1       8.149   2.223   0.000  1.00  0.00     0.025 A 
HETATM    2  C   UNL     1       8.899   3.522   0.000  1.00  0.00     0.044 A 
HETATM    3  N   UNL     1       8.899   0.924   0.000  1.00  0.00    -0.351 N 
HETATM    4  C   UNL     1      10.399   3.522   0.000  1.00  0.00     0.022 A 
HETATM    5  C   UNL     1      10.399   0.924   0.000  1.00  0.00     0.115 A 
HETATM    6  C   UNL     1      11.149   2.223   0.000  1.00  0.00     0.100 A 
HETATM    7  C   UNL     1      12.649   2.223   0.000  1.00  0.00    -0.005 C 
HETATM    8  N   UNL     1      14.149   2.223   0.000  1.00  0.00    -0.101 N 
ENDROOT
BRANCH   3   9
HETATM    9  C   UNL     1       8.149  -0.375   0.000  1.00  0.00     0.101 C 
BRANCH   9  10
HETATM   10  C   UNL     1       8.899  -1.674   0.000  1.00  0.00     0.022 A 
HETATM   11  C   UNL     1      10.399  -1.674   0.000  1.00  0.00     0.002 A 
HETATM   12  C   UNL     1      11.149  -2.973   0.000  1.00  0.00     0.000 A 
HETATM   13  C   UNL     1      10.399  -4.272   0.000  1.00  0.00     0.000 A 
HETATM   14  C   UNL     1       8.899  -4.272   0.000  1.00  0.00     0.000 A 
HETATM   15  C   UNL     1       8.149  -2.973   0.000  1.00  0.00     0.002 A 
ENDBRANCH   9  10
ENDBRANCH   3   9
BRANCH   1  16
HETATM   16  C   UNL     1       6.649   2.223   0.000  1.00  0.00    -0.033 A 
HETATM   17  C   UNL     1       5.899   3.522   0.000  1.00  0.00     0.023 A 
HETATM   18  C   UNL     1       4.399   3.522   0.000  1.00  0.00     0.004 A 
HETATM   19  C   UNL     1       3.650   2.223   0.000  1.00  0.00     0.001 A 
HETATM   20  C   UNL     1       4.399   0.924   0.000  1.00  0.00     0.004 A 
HETATM   21  C   UNL     1       2.150   2.223   0.000  1.00  0.00     0.000 C 
HETATM   22  C   UNL     1       5.899   0.924   0.000  1.00  0.00     0.023 A 
ENDBRANCH   1  16
TORSDOF 3
