REMARK  3 active torsions:
REMARK  status: ('A' for Active; 'I' for Inactive)
REMARK    1  A    between atoms: C_9  and  C_11 
REMARK    2  A    between atoms: C_11  and  N_15 
REMARK    3  A    between atoms: C_12  and  N_15 
ROOT
HETATM    1  C   UNL     1       3.348   3.000   0.000  1.00  0.00     0.096 A 
HETATM    2  C   UNL     1       3.348   1.500   0.000  1.00  0.00     0.009 A 
HETATM    3  C   UNL     1       4.647   0.750   0.000  1.00  0.00     0.049 A 
HETATM    4  C   UNL     1       5.946   1.500   0.000  1.00  0.00    -0.026 A 
HETATM    5  C   UNL     1       5.946   3.000   0.000  1.00  0.00     0.057 A 
HETATM    6  C   UNL     1       4.647   3.750   0.000  1.00  0.00     0.093 A 
HETATM    7  C   UNL     1       7.245   0.750   0.000  1.00  0.00     0.029 A 
HETATM    8  C   UNL     1       8.544   1.500   0.000  1.00  0.00     0.048 A 
HETATM    9  C   UNL     1       8.544   3.000   0.000  1.00  0.00     0.061 A 
HETATM   10  C   UNL     1       2.049   0.750   0.000  1.00  0.00     0.209 A 
HETATM   11  O   UNL     1       0.750   1.500   0.000  1.00  0.00    -0.191 OA
HETATM   12  N   UNL     1       7.245   3.750   0.000  1.00  0.00    -0.257 NA
HETATM   13  N   UNL     1       2.049   3.750   0.000  1.00  0.00    -0.063 N 
HETATM   14  O   UNL     1       0.750   3.000   0.000  1.00  0.00    -0.080 OA
HETATM   15  O   UNL     1       2.049   5.250   0.000  1.00  0.00    -0.055 OA
ENDROOT
BRANCH   9  16
HETATM   16  C   UNL     1       9.843   3.750   0.000  1.00  0.00     0.166 C 
BRANCH  16  17
HETATM   17  N   UNL     1      11.142   3.000   0.000  1.00  0.00    -0.273 NA
BRANCH  17  18
HETATM   18  C   UNL     1      12.441   3.750   0.000  1.00  0.00     0.033 C 
HETATM   19  C   UNL     1      12.441   5.250   0.000  1.00  0.00     0.047 C 
HETATM   20  C   UNL     1      13.740   3.000   0.000  1.00  0.00     0.047 C 
ENDBRANCH  17  18
ENDBRANCH  16  17
ENDBRANCH   9  16
TORSDOF 3
