REMARK  1 active torsions:
REMARK  status: ('A' for Active; 'I' for Inactive)
REMARK    1  A    between atoms: C_2  and  C_3 
ROOT
HETATM    1  N   UNL     1      -2.677   0.895   0.000  1.00  0.00    -0.239 NA
HETATM    2  C   UNL     1      -2.286  -0.553   0.000  1.00  0.00     0.153 A 
HETATM    3  C   UNL     1      -1.420   1.714   0.000  1.00  0.00     0.239 A 
HETATM    4  N   UNL     1      -0.253   0.772   0.000  1.00  0.00    -0.253 N 
HETATM    5  C   UNL     1      -0.788  -0.629   0.000  1.00  0.00     0.192 A 
HETATM    6  N   UNL     1       0.158  -1.793   0.000  1.00  0.00    -0.111 NA
HETATM    7  C   UNL     1       1.228   1.009   0.000  1.00  0.00     0.267 A 
HETATM    8  O   UNL     1       1.764   2.410   0.000  1.00  0.00    -0.219 OA
HETATM    9  N   UNL     1       1.639  -1.556   0.000  1.00  0.00    -0.060 NA
HETATM   10  N   UNL     1       2.174  -0.155   0.000  1.00  0.00    -0.196 N 
HETATM   11 CL   UNL     1       3.245   2.647   0.000  1.00  0.00    -0.040 Cl
HETATM   12  C   UNL     1       3.655   0.082   0.000  1.00  0.00     0.152 A 
HETATM   13  C   UNL     1       4.191   1.483   0.000  1.00  0.00     0.136 A 
ENDROOT
BRANCH   2  14
HETATM   14  C   UNL     1      -3.228  -1.720   0.000  1.00  0.00     0.221 C 
HETATM   15  O   UNL     1      -2.689  -3.120   0.000  1.00  0.00    -0.173 OA
HETATM   16  N   UNL     1      -4.710  -1.488   0.000  1.00  0.00    -0.069 NA
ENDBRANCH   2  14
TORSDOF 1
