REMARK  3 active torsions:
REMARK  status: ('A' for Active; 'I' for Inactive)
REMARK    1  A    between atoms: N_2  and  C_13 
REMARK    2  A    between atoms: C_19  and  O_25 
REMARK    3  A    between atoms: C_21  and  O_23 
ROOT
HETATM    1  N   UNL     1      -7.163  -1.909   0.000  1.00  0.00     0.084 NA
HETATM    2  N   UNL     1      -7.163  -3.409   0.000  1.00  0.00     0.054 N 
HETATM    3  N   UNL     1      -5.736  -1.445   0.000  1.00  0.00     0.068 N 
HETATM    4  C   UNL     1      -4.854  -2.659   0.000  1.00  0.00     0.348 A 
HETATM    5  C   UNL     1      -3.363  -2.816   0.000  1.00  0.00     0.181 A 
HETATM    6  C   UNL     1      -2.753  -4.186   0.000  1.00  0.00     0.024 A 
HETATM    7  C   UNL     1      -5.736  -3.872   0.000  1.00  0.00     0.364 A 
HETATM    8  C   UNL     1      -3.634  -5.399   0.000  1.00  0.00     0.023 A 
HETATM    9  C   UNL     1      -4.397  -1.812   0.000  1.00  0.00     0.194 A 
HETATM   10  C   UNL     1      -5.696  -2.562   0.000  1.00  0.00     0.300 A 
HETATM   11  C   UNL     1      -6.008  -4.029   0.000  1.00  0.00     0.194 A 
HETATM   12  C   UNL     1      -5.126  -5.243   0.000  1.00  0.00     0.099 A 
HETATM   13  C   UNL     1      -3.024  -6.770   0.000  1.00  0.00     0.224 A 
HETATM   14  O   UNL     1      -1.532  -6.926   0.000  1.00  0.00    -0.164 OA
HETATM   15  C   UNL     1      -1.261  -4.343   0.000  1.00  0.00     0.223 A 
HETATM   16  O   UNL     1      -0.651  -5.713   0.000  1.00  0.00    -0.164 OA
ENDROOT
BRANCH   2  17
HETATM   17  C   UNL     1      -8.376  -4.290   0.000  1.00  0.00     0.207 A 
HETATM   18  C   UNL     1      -8.220  -5.782   0.000  1.00  0.00     0.033 A 
HETATM   19  C   UNL     1      -9.433  -6.664   0.000  1.00  0.00     0.002 A 
HETATM   20  C   UNL     1     -10.803  -6.054   0.000  1.00  0.00     0.000 A 
HETATM   21  C   UNL     1     -10.960  -4.562   0.000  1.00  0.00     0.002 A 
HETATM   22  C   UNL     1      -9.747  -3.680   0.000  1.00  0.00     0.033 A 
ENDBRANCH   2  17
BRANCH  13  23
HETATM   23  O   UNL     1      -3.906  -7.983   0.000  1.00  0.00    -0.306 OA
HETATM   24  C   UNL     1      -3.296  -9.354   0.000  1.00  0.00     0.184 C 
ENDBRANCH  13  23
BRANCH  15  25
HETATM   25  O   UNL     1      -0.379  -3.129   0.000  1.00  0.00    -0.317 OA
HETATM   26  C   UNL     1      -0.989  -1.759   0.000  1.00  0.00     0.109 C 
ENDBRANCH  15  25
TORSDOF 3
