REMARK  3 active torsions:
REMARK  status: ('A' for Active; 'I' for Inactive)
REMARK    1  A    between atoms: C_2  and  C_19 
REMARK    2  A    between atoms: C_6  and  O_33 
REMARK    3  A    between atoms: C_13  and  O_35 
ROOT
HETATM    1  C   UNL     1       3.736   1.709   0.000  1.00  0.00     0.051 A 
HETATM    2  C   UNL     1       3.736   0.209   0.000  1.00  0.00     0.011 A 
HETATM    3  C   UNL     1       5.035  -0.541   0.000  1.00  0.00     0.031 A 
HETATM    4  C   UNL     1       6.334   0.209   0.000  1.00  0.00     0.026 A 
HETATM    5  C   UNL     1       6.334   1.709   0.000  1.00  0.00     0.016 A 
HETATM    6  C   UNL     1       5.035   2.459   0.000  1.00  0.00     0.071 A 
HETATM    7  C   UNL     1       7.633  -0.541   0.000  1.00  0.00     0.195 A 
HETATM    8  O   UNL     1       8.932   0.209   0.000  1.00  0.00    -0.286 OA
HETATM    9  C   UNL     1       8.932   1.709   0.000  1.00  0.00     0.098 A 
HETATM   10  C   UNL     1       7.633   2.459   0.000  1.00  0.00     0.009 A 
HETATM   11  C   UNL     1      10.231   2.459   0.000  1.00  0.00     0.022 A 
HETATM   12  C   UNL     1      10.231   3.959   0.000  1.00  0.00     0.041 A 
HETATM   13  C   UNL     1       8.932   4.709   0.000  1.00  0.00     0.078 A 
HETATM   14  C   UNL     1       7.633   3.959   0.000  1.00  0.00     0.079 A 
HETATM   15  C   UNL     1      11.530   1.709   0.000  1.00  0.00    -0.022 A 
HETATM   16  C   UNL     1      12.829   2.459   0.000  1.00  0.00     0.033 A 
HETATM   17  C   UNL     1      12.829   3.959   0.000  1.00  0.00     0.059 A 
HETATM   18  C   UNL     1      11.530   4.709   0.000  1.00  0.00     0.110 A 
HETATM   19  O   UNL     1       7.633  -2.041   0.000  1.00  0.00    -0.311 OA
HETATM   20  C   UNL     1      11.530  -2.791   0.000  1.00  0.00     0.163 A 
HETATM   21  C   UNL     1      10.231  -2.041   0.000  1.00  0.00     0.069 A 
HETATM   22  C   UNL     1      12.829  -2.041   0.000  1.00  0.00     0.186 A 
HETATM   23  O   UNL     1      10.231  -0.541   0.000  1.00  0.00     0.000 OA
HETATM   24  C   UNL     1      12.829  -0.541   0.000  1.00  0.00     0.177 A 
HETATM   25  C   UNL     1      11.530   0.209   0.000  1.00  0.00     0.002 A 
HETATM   26  O   UNL     1      11.530  -4.291   0.000  1.00  0.00    -0.223 OA
HETATM   27  O   UNL     1      14.128  -2.791   0.000  1.00  0.00    -0.220 OA
HETATM   28  C   UNL     1       8.932  -2.791   0.000  1.00  0.00     0.154 A 
HETATM   29  C   UNL     1      11.530  -1.291   0.000  1.00  0.00     0.096 A 
HETATM   30  O   UNL     1      14.128   0.209   0.000  1.00  0.00    -0.219 OA
HETATM   31  O   UNL     1      11.530   6.209   0.000  1.00  0.00    -0.195 OA
ENDROOT
BRANCH   2  32
HETATM   32  C   UNL     1       2.437  -0.541   0.000  1.00  0.00     0.001 C 
HETATM   33  C   UNL     1       1.138   0.209   0.000  1.00  0.00     0.000 C 
ENDBRANCH   2  32
BRANCH   6  34
HETATM   34  O   UNL     1       5.035   3.959   0.000  1.00  0.00    -0.332 OA
HETATM   35  C   UNL     1       3.736   4.709   0.000  1.00  0.00     0.181 C 
ENDBRANCH   6  34
BRANCH  13  36
HETATM   36  O   UNL     1       8.932   6.209   0.000  1.00  0.00    -0.332 OA
HETATM   37  C   UNL     1       7.633   6.959   0.000  1.00  0.00     0.181 C 
ENDBRANCH  13  36
TORSDOF 3
