REMARK  7 active torsions:
REMARK  status: ('A' for Active; 'I' for Inactive)
REMARK    1  A    between atoms: O_2  and  C_14 
REMARK    2  A    between atoms: C_3  and  C_14 
REMARK    3  A    between atoms: C_3  and  C_8 
REMARK    4  A    between atoms: C_9  and  C_14 
REMARK    5  A    between atoms: C_10  and  C_11 
REMARK    6  A    between atoms: C_15  and  C_16 
REMARK    7  A    between atoms: C_18  and  O_21 
ROOT
HETATM    1  N   UNL     1       0.394   1.785   0.000  1.00  0.00    -0.373 N 
HETATM    2  O   UNL     1       1.884  -1.504   0.000  1.00  0.00     0.000 OA
HETATM    3  C   UNL     1       1.104   1.785   0.000  1.00  0.00     0.079 A 
HETATM    4  C   UNL     1       0.394   1.075   0.000  1.00  0.00     0.062 A 
HETATM    5  C   UNL     1       0.762   0.438   0.000  1.00  0.00     0.044 A 
HETATM    6  C   UNL     1      -0.342   1.075   0.000  1.00  0.00     0.033 A 
HETATM    7  C   UNL     1      -0.709   0.438   0.000  1.00  0.00     0.003 A 
HETATM    8  C   UNL     1       1.500   0.435   0.000  1.00  0.00     0.029 A 
HETATM    9  C   UNL     1       1.869  -0.202   0.000  1.00  0.00     0.004 A 
HETATM   10  C   UNL     1       0.394  -0.200   0.000  1.00  0.00    -0.001 A 
HETATM   11  C   UNL     1      -0.342  -0.200   0.000  1.00  0.00     0.003 A 
HETATM   12  C   UNL     1      -1.445   0.438   0.000  1.00  0.00     0.004 A 
HETATM   13  C   UNL     1      -1.813  -0.200   0.000  1.00  0.00     0.000 A 
HETATM   14  C   UNL     1       1.104  -0.200   0.000  1.00  0.00     0.018 A 
HETATM   15  C   UNL     1       1.500  -0.840   0.000  1.00  0.00     0.001 A 
HETATM   16  C   UNL     1       0.764  -0.840   0.000  1.00  0.00     0.000 A 
HETATM   17  C   UNL     1      -0.709  -0.837   0.000  1.00  0.00     0.000 A 
HETATM   18  C   UNL     1      -1.445  -0.837   0.000  1.00  0.00     0.000 A 
HETATM   19  O   UNL     1      -1.816  -1.479   0.000  1.00  0.00     0.000 OA
HETATM   20  C   UNL     1      -2.556  -1.479   0.000  1.00  0.00     0.000 A 
HETATM   21  O   UNL     1      -0.318  -1.515   0.000  1.00  0.00     0.000 OA
HETATM   22  C   UNL     1      -0.250   2.430   0.000  1.00  0.00     0.093 A 
ENDROOT
TORSDOF 7
