REMARK  2 active torsions:
REMARK  status: ('A' for Active; 'I' for Inactive)
REMARK    1  A    between atoms: C_15  and  S_16 
REMARK    2  A    between atoms: S_17  and  C_18 
ROOT
HETATM    1  S   UNL     1      -0.372  -1.032   0.000  1.00  0.00    -0.076 SA
HETATM    2  S   UNL     1       1.273  -2.857   0.000  1.00  0.00    -0.076 SA
HETATM    3  C   UNL     1      -0.189  -2.520   0.000  1.00  0.00     0.128 A 
ENDROOT
BRANCH   1   4
HETATM    4  C   UNL     1      -1.753  -0.446   0.000  1.00  0.00     0.137 A 
HETATM    5  S   UNL     1      -2.091   1.015   0.000  1.00  0.00    -0.065 SA
HETATM    6  C   UNL     1      -3.586   1.145   0.000  1.00  0.00     0.023 A 
HETATM    7  C   UNL     1      -4.171  -0.236   0.000  1.00  0.00     0.062 A 
HETATM    8  C   UNL     1      -4.489   2.343   0.000  1.00  0.00     0.034 A 
HETATM    9  C   UNL     1      -5.660  -0.419   0.000  1.00  0.00     0.046 A 
HETATM   10  N   UNL     1      -3.038  -1.219   0.000  1.00  0.00    -0.237 NA
HETATM   11  C   UNL     1      -6.563   0.778   0.000  1.00  0.00     0.007 A 
HETATM   12  C   UNL     1      -5.978   2.159   0.000  1.00  0.00     0.006 A 
ENDBRANCH   1   4
BRANCH   2  13
HETATM   13  C   UNL     1       2.296  -1.760   0.000  1.00  0.00     0.137 A 
HETATM   14  N   UNL     1       2.009  -0.287   0.000  1.00  0.00    -0.237 NA
HETATM   15  C   UNL     1       3.320   0.440   0.000  1.00  0.00     0.062 A 
HETATM   16  C   UNL     1       3.657   1.902   0.000  1.00  0.00     0.046 A 
HETATM   17  C   UNL     1       4.418  -0.582   0.000  1.00  0.00     0.023 A 
HETATM   18  C   UNL     1       5.091   2.341   0.000  1.00  0.00     0.007 A 
HETATM   19  C   UNL     1       6.189   1.319   0.000  1.00  0.00     0.006 A 
HETATM   20  C   UNL     1       5.852  -0.143   0.000  1.00  0.00     0.034 A 
HETATM   21  S   UNL     1       3.784  -1.942   0.000  1.00  0.00    -0.065 SA
ENDBRANCH   2  13
TORSDOF 2
