REMARK  0 active torsions:
REMARK  status: ('A' for Active; 'I' for Inactive)
ROOT
HETATM    1  N   UNL     1       0.275   2.525   0.000  1.00  0.00    -0.275 NA
HETATM    2  N   UNL     1       2.873   7.024   0.000  1.00  0.00    -0.272 NA
HETATM    3  C   UNL     1       4.172   7.774   0.000  1.00  0.00     0.126 A 
HETATM    4  C   UNL     1       5.471   7.024   0.000  1.00  0.00     0.031 A 
HETATM    5  C   UNL     1       5.471   5.524   0.000  1.00  0.00     0.026 A 
HETATM    6  C   UNL     1       4.172   4.774   0.000  1.00  0.00    -0.027 A 
HETATM    7  C   UNL     1       2.873   5.524   0.000  1.00  0.00     0.065 A 
HETATM    8  C   UNL     1       1.573   4.774   0.000  1.00  0.00     0.008 A 
HETATM    9  C   UNL     1       0.275   5.524   0.000  1.00  0.00     0.031 A 
HETATM   10  C   UNL     1      -1.024   4.774   0.000  1.00  0.00     0.031 A 
HETATM   11  C   UNL     1       4.172   3.275   0.000  1.00  0.00     0.030 A 
HETATM   12  C   UNL     1       1.573   3.275   0.000  1.00  0.00     0.051 A 
HETATM   13  C   UNL     1      -1.024   3.275   0.000  1.00  0.00     0.126 A 
HETATM   14  C   UNL     1       2.873   2.525   0.000  1.00  0.00     0.050 A 
ENDROOT
TORSDOF 0
