REMARK  0 active torsions:
REMARK  status: ('A' for Active; 'I' for Inactive)
ROOT
HETATM    1  O   UNL     1      -6.716   0.775   0.000  1.00  0.00    -0.188 OA
HETATM    2  C   UNL     1      -4.578  -0.873   0.000  1.00  0.00     0.160 A 
HETATM    3  C   UNL     1      -5.877  -1.623   0.000  1.00  0.00     0.051 A 
HETATM    4  C   UNL     1      -3.279  -1.623   0.000  1.00  0.00     0.178 A 
HETATM    5  C   UNL     1      -7.049  -0.688   0.000  1.00  0.00     0.158 A 
HETATM    6  C   UNL     1      -8.512  -1.021   0.000  1.00  0.00     0.156 A 
HETATM    7  C   UNL     1      -3.279  -3.123   0.000  1.00  0.00     0.140 A 
HETATM    8  C   UNL     1      -5.877  -3.123   0.000  1.00  0.00    -0.011 A 
HETATM    9  C   UNL     1      -9.163  -2.373   0.000  1.00  0.00     0.029 A 
HETATM   10  C   UNL     1      -4.578  -3.873   0.000  1.00  0.00     0.083 A 
HETATM   11  C   UNL     1      -7.049  -4.058   0.000  1.00  0.00    -0.004 A 
HETATM   12  C   UNL     1      -8.512  -3.724   0.000  1.00  0.00     0.002 A 
HETATM   13  O   UNL     1      -9.447   0.151   0.000  1.00  0.00    -0.188 OA
HETATM   14  O   UNL     1      -4.578   0.627   0.000  1.00  0.00    -0.188 OA
HETATM   15  O   UNL     1      -1.980  -0.873   0.000  1.00  0.00    -0.186 OA
HETATM   16  O   UNL     1      -1.980  -3.873   0.000  1.00  0.00    -0.192 OA
ENDROOT
TORSDOF 0
