REMARK  2 active torsions:
REMARK  status: ('A' for Active; 'I' for Inactive)
REMARK    1  A    between atoms: O_1  and  C_2 
REMARK    2  A    between atoms: C_12  and  C_14 
REMARK       I    between atoms: C_14  and  N_15 
ROOT
HETATM    1  C   UNL     1      -2.014  -8.850   0.000  1.00  0.00     0.134 A 
HETATM    2  C   UNL     1      -0.899  -7.847   0.000  1.00  0.00    -0.017 A 
HETATM    3  C   UNL     1      -1.702 -10.318   0.000  1.00  0.00     0.183 A 
HETATM    4  C   UNL     1      -1.404 -10.221   0.000  1.00  0.00     0.068 A 
HETATM    5  C   UNL     1       0.400  -8.597   0.000  1.00  0.00    -0.019 A 
HETATM    6  C   UNL     1      -0.899  -6.347   0.000  1.00  0.00     0.078 A 
HETATM    7  O   UNL     1      -2.817 -11.321   0.000  1.00  0.00    -0.221 OA
HETATM    8  O   UNL     1      -0.276 -10.781   0.000  1.00  0.00     0.000 OA
HETATM    9  C   UNL     1       0.088 -10.064   0.000  1.00  0.00     0.029 A 
HETATM   10  C   UNL     1       1.698  -7.847   0.000  1.00  0.00     0.170 A 
HETATM   11  C   UNL     1       0.400  -5.597   0.000  1.00  0.00     0.117 A 
HETATM   12  O   UNL     1       1.698  -6.347   0.000  1.00  0.00    -0.327 OA
ENDROOT
BRANCH  11  13
HETATM   13  C   UNL     1       0.400  -4.097   0.000  1.00  0.00     0.203 C 
HETATM   14  N   UNL     1       1.698  -3.347   0.000  1.00  0.00    -0.376 N 
HETATM   15  H   UNL     1       1.698  -1.847   0.000  1.00  0.00     0.158 HD
HETATM   16  H   UNL     1       2.998  -4.097   0.000  1.00  0.00     0.158 HD
HETATM   17  O   UNL     1      -0.900  -3.347   0.000  1.00  0.00    -0.170 OA
ENDBRANCH  11  13
BRANCH   1  18
HETATM   18  O   UNL     1      -3.441  -8.387   0.000  1.00  0.00    -0.381 OA
HETATM   19  H   UNL     1      -4.556  -9.390   0.000  1.00  0.00     0.211 HD
ENDBRANCH   1  18
TORSDOF 2
