REMARK  6 active torsions:
REMARK  status: ('A' for Active; 'I' for Inactive)
REMARK    1  A    between atoms: C_2  and  C_4 
REMARK    2  A    between atoms: C_2  and  C_15 
REMARK    3  A    between atoms: C_16  and  C_17 
REMARK    4  A    between atoms: C_16  and  C_18 
REMARK    5  A    between atoms: C_17  and  C_19 
REMARK    6  A    between atoms: C_18  and  C_19 
ROOT
HETATM    1  C   UNL     1       6.870  -1.601   0.000  1.00  0.00     0.136 A 
HETATM    2  C   UNL     1       6.870  -0.101   0.000  1.00  0.00     0.074 A 
HETATM    3  C   UNL     1       8.169   0.650   0.000  1.00  0.00     0.194 A 
HETATM    4  N   UNL     1       8.169  -2.350   0.000  1.00  0.00    -0.280 N 
HETATM    5  O   UNL     1       8.169   2.150   0.000  1.00  0.00    -0.171 OA
HETATM    6  N   UNL     1       9.468  -0.100   0.000  1.00  0.00    -0.297 N 
HETATM    7  C   UNL     1       9.468  -1.600   0.000  1.00  0.00     0.262 A 
HETATM    8  O   UNL     1      10.767  -2.350   0.000  1.00  0.00    -0.151 OA
HETATM    9  H   UNL     1      10.767   0.650   0.000  1.00  0.00     0.171 HD
HETATM   10  N   UNL     1       5.571  -2.350   0.000  1.00  0.00    -0.082 NA
HETATM   11  C   UNL     1       8.169  -3.850   0.000  1.00  0.00     0.135 C 
ENDROOT
BRANCH   2  12
HETATM   12  C   UNL     1       5.571   0.649   0.000  1.00  0.00     0.127 C 
HETATM   13  O   UNL     1       5.571   2.150   0.000  1.00  0.00    -0.224 OA
HETATM   14  C   UNL     1       4.272  -0.101   0.000  1.00  0.00     0.030 C 
HETATM   15  C   UNL     1       4.272  -0.101   0.000  1.00  0.00     0.030 C 
HETATM   16  C   UNL     1       4.272   1.399   0.000  1.00  0.00     0.030 A 
HETATM   17  C   UNL     1       2.973   2.150   0.000  1.00  0.00     0.003 A 
HETATM   18  C   UNL     1       2.973   0.649   0.000  1.00  0.00     0.007 A 
HETATM   19  C   UNL     1       1.674   1.399   0.000  1.00  0.00     0.000 A 
HETATM   20  C   UNL     1       1.674  -0.101   0.000  1.00  0.00     0.000 A 
HETATM   21  C   UNL     1       2.973  -0.851   0.000  1.00  0.00     0.005 A 
ENDBRANCH   2  12
TORSDOF 6
