REMARK  0 active torsions:
REMARK  status: ('A' for Active; 'I' for Inactive)
ROOT
HETATM    1  N   UNL     1       1.574   7.774   0.000  1.00  0.00    -0.128 N 
HETATM    2  C   UNL     1       1.574   6.274   0.000  1.00  0.00     0.163 A 
HETATM    3  C   UNL     1       2.873   8.524   0.000  1.00  0.00     0.737 A 
HETATM    4  N   UNL     1       2.873   5.524   0.000  1.00  0.00    -0.046 NA
HETATM    5  C   UNL     1       4.172   6.274   0.000  1.00  0.00     0.752 A 
HETATM    6  C   UNL     1       1.574  10.774   0.000  1.00  0.00     0.228 A 
HETATM    7  N   UNL     1       4.172   7.774   0.000  1.00  0.00     0.027 N 
HETATM    8  O   UNL     1       1.574  12.274   0.000  1.00  0.00    -0.169 OA
HETATM    9  C   UNL     1       6.770   6.274   0.000  1.00  0.00     0.228 A 
HETATM   10  O   UNL     1       8.069   5.524   0.000  1.00  0.00    -0.169 OA
HETATM   11  C   UNL     1       0.275   5.524   0.000  1.00  0.00     0.087 A 
HETATM   12  C   UNL     1      -1.024   6.274   0.000  1.00  0.00    -0.039 A 
HETATM   13  C   UNL     1      -2.324   5.524   0.000  1.00  0.00     0.026 C 
HETATM   14  N   UNL     1       2.873  10.024   0.000  1.00  0.00    -0.035 NA
HETATM   15  N   UNL     1       5.471   5.524   0.000  1.00  0.00    -0.034 NA
HETATM   16  C   UNL     1       0.275  10.024   0.000  1.00  0.00     0.039 A 
HETATM   17  C   UNL     1      -1.024  10.774   0.000  1.00  0.00     0.032 A 
HETATM   18  C   UNL     1      -2.324  10.024   0.000  1.00  0.00     0.010 A 
HETATM   19  C   UNL     1      -2.324   8.524   0.000  1.00  0.00     0.028 A 
HETATM   20  C   UNL     1      -1.024   7.774   0.000  1.00  0.00    -0.013 A 
HETATM   21  C   UNL     1       0.275   8.524   0.000  1.00  0.00     0.077 A 
HETATM   22  C   UNL     1       6.770   7.774   0.000  1.00  0.00     0.035 A 
HETATM   23  C   UNL     1       5.471   8.524   0.000  1.00  0.00     0.076 A 
HETATM   24  C   UNL     1       5.471  10.024   0.000  1.00  0.00     0.045 A 
HETATM   25  C   UNL     1       6.770  10.774   0.000  1.00  0.00     0.007 A 
HETATM   26  C   UNL     1       8.069  10.024   0.000  1.00  0.00     0.005 A 
HETATM   27  C   UNL     1       8.069   8.524   0.000  1.00  0.00     0.031 A 
ENDROOT
TORSDOF 0
