REMARK  3 active torsions:
REMARK  status: ('A' for Active; 'I' for Inactive)
REMARK    1  A    between atoms: N_2  and  C_12 
REMARK    2  A    between atoms: C_12  and  O_13 
REMARK    3  A    between atoms: O_13  and  C_14 
REMARK       I    between atoms: C_14  and  N_16 
ROOT
HETATM    1  O   UNL     1       3.118   7.354   0.000  1.00  0.00    -0.171 OA
HETATM    2  N   UNL     1       4.332   4.972   0.000  1.00  0.00    -0.259 N 
HETATM    3  O   UNL     1       4.750   2.332   0.000  1.00  0.00    -0.171 OA
HETATM    4  C   UNL     1       3.118   5.854   0.000  1.00  0.00     0.193 A 
HETATM    5  C   UNL     1       1.905   4.972   0.000  1.00  0.00     0.019 A 
HETATM    6  C   UNL     1       0.438   5.284   0.000  1.00  0.00     0.030 A 
HETATM    7  C   UNL     1      -0.566   4.169   0.000  1.00  0.00     0.005 A 
HETATM    8  C   UNL     1       2.368   3.546   0.000  1.00  0.00     0.019 A 
HETATM    9  C   UNL     1      -0.103   2.743   0.000  1.00  0.00     0.005 A 
HETATM   10  C   UNL     1       3.868   3.546   0.000  1.00  0.00     0.193 A 
HETATM   11  C   UNL     1       1.365   2.431   0.000  1.00  0.00     0.030 A 
ENDROOT
BRANCH   2  12
HETATM   12  C   UNL     1       5.758   5.436   0.000  1.00  0.00     0.267 C 
BRANCH  12  13
HETATM   13  O   UNL     1       6.873   4.432   0.000  1.00  0.00    -0.270 OA
BRANCH  13  14
HETATM   14  C   UNL     1       8.300   4.896   0.000  1.00  0.00     0.316 C 
HETATM   15  O   UNL     1       9.415   3.892   0.000  1.00  0.00    -0.141 OA
HETATM   16  N   UNL     1       8.612   6.363   0.000  1.00  0.00    -0.223 NA
HETATM   17  C   UNL     1       7.497   7.366   0.000  1.00  0.00     0.156 C 
ENDBRANCH  13  14
ENDBRANCH  12  13
ENDBRANCH   2  12
TORSDOF 3
