REMARK  3 active torsions:
REMARK  status: ('A' for Active; 'I' for Inactive)
REMARK    1  A    between atoms: S_1  and  C_3 
REMARK       I    between atoms: C_3  and  N_15 
REMARK       I    between atoms: C_4  and  N_15 
REMARK       I    between atoms: C_4  and  N_16 
REMARK    2  A    between atoms: C_6  and  C_8 
REMARK       I    between atoms: C_6  and  N_16 
REMARK    3  A    between atoms: C_13  and  N_17 
ROOT
HETATM    1  O   UNL     1       2.250   3.348   0.000  1.00  0.00    -0.162 OA
HETATM    2  C   UNL     1       3.000   2.049   0.000  1.00  0.00     0.243 C 
HETATM    3  C   UNL     1       5.250   3.348   0.000  1.00  0.00     0.304 C 
HETATM    4  O   UNL     1       4.500   4.647   0.000  1.00  0.00    -0.147 OA
HETATM    5  C   UNL     1       7.500   4.647   0.000  1.00  0.00     0.208 C 
HETATM    6  O   UNL     1       6.750   5.946   0.000  1.00  0.00    -0.170 OA
HETATM    7  N   UNL     1       4.500   2.049   0.000  1.00  0.00    -0.171 NA
HETATM    8  N   UNL     1       6.750   3.348   0.000  1.00  0.00    -0.177 NA
ENDROOT
BRANCH   5   9
HETATM    9  C   UNL     1       9.000   4.647   0.000  1.00  0.00     0.000 A 
HETATM   10  C   UNL     1       9.750   5.946   0.000  1.00  0.00     0.032 A 
HETATM   11  C   UNL     1      11.250   5.946   0.000  1.00  0.00     0.050 A 
HETATM   12  C   UNL     1      12.000   4.647   0.000  1.00  0.00     0.083 A 
HETATM   13  C   UNL     1      11.250   3.348   0.000  1.00  0.00     0.050 A 
HETATM   14  C   UNL     1       9.750   3.348   0.000  1.00  0.00     0.032 A 
BRANCH  12  15
HETATM   15  N   UNL     1      13.500   4.647   0.000  1.00  0.00    -0.122 N 
HETATM   16  O   UNL     1      14.250   5.946   0.000  1.00  0.00    -0.532 OA
HETATM   17  O   UNL     1      14.250   3.348   0.000  1.00  0.00    -0.532 OA
ENDBRANCH  12  15
ENDBRANCH   5   9
BRANCH   2  18
HETATM   18  S   UNL     1       2.250   0.750   0.000  1.00  0.00    -0.066 SA
HETATM   19  C   UNL     1       0.750   0.750   0.000  1.00  0.00     0.078 C 
ENDBRANCH   2  18
TORSDOF 3
