REMARK  1 active torsions:
REMARK  status: ('A' for Active; 'I' for Inactive)
REMARK    1  A    between atoms: N_10  and  C_14 
ROOT
HETATM    1 CL   UNL     1      -3.977   2.715   0.000  1.00  0.00    -0.079 Cl
HETATM    2  C   UNL     1      -2.722   1.893   0.000  1.00  0.00     0.102 A 
HETATM    3  C   UNL     1      -2.806   0.395   0.000  1.00  0.00     0.092 A 
HETATM    4  C   UNL     1      -1.383   2.569   0.000  1.00  0.00     0.148 A 
HETATM    5  O   UNL     1      -1.299   4.067   0.000  1.00  0.00    -0.189 OA
HETATM    6  O   UNL     1      -1.551  -0.426   0.000  1.00  0.00    -0.293 OA
HETATM    7  C   UNL     1      -0.212   0.250   0.000  1.00  0.00     0.186 A 
HETATM    8  C   UNL     1      -0.128   1.747   0.000  1.00  0.00     0.083 A 
HETATM    9  C   UNL     1       1.323   2.130   0.000  1.00  0.00     0.085 A 
HETATM   10  N   UNL     1       1.186  -0.293   0.000  1.00  0.00    -0.216 N 
HETATM   11  N   UNL     1       2.135   0.869   0.000  1.00  0.00    -0.168 NA
HETATM   12  C   UNL     1      -4.145  -0.281   0.000  1.00  0.00     0.059 C 
HETATM   13  C   UNL     1       1.865   3.528   0.000  1.00  0.00     0.054 C 
ENDROOT
BRANCH  10  14
HETATM   14  C   UNL     1       1.569  -1.744   0.000  1.00  0.00     0.040 A 
HETATM   15  C   UNL     1       3.017  -2.137   0.000  1.00  0.00     0.042 A 
HETATM   16  C   UNL     1       3.399  -3.587   0.000  1.00  0.00     0.006 A 
HETATM   17  C   UNL     1       2.335  -4.644   0.000  1.00  0.00     0.001 A 
HETATM   18  C   UNL     1       0.887  -4.250   0.000  1.00  0.00     0.006 A 
HETATM   19  C   UNL     1       0.505  -2.800   0.000  1.00  0.00     0.042 A 
ENDBRANCH  10  14
TORSDOF 1
