REMARK  0 active torsions:
REMARK  status: ('A' for Active; 'I' for Inactive)
ROOT
HETATM    1  C   UNL     1       0.750  -6.060   0.000  1.00  0.00     0.005 A 
HETATM    2  C   UNL     1       0.750  -7.560   0.000  1.00  0.00     0.007 A 
HETATM    3  C   UNL     1       2.049  -5.310   0.000  1.00  0.00     0.029 A 
HETATM    4  C   UNL     1       2.049  -8.310   0.000  1.00  0.00     0.046 A 
HETATM    5  C   UNL     1       3.348  -6.060   0.000  1.00  0.00     0.015 A 
HETATM    6  C   UNL     1       3.348  -7.560   0.000  1.00  0.00     0.062 A 
HETATM    7  O   UNL     1       4.192  -2.573   0.000  1.00  0.00    -0.169 OA
HETATM    8  O   UNL     1       3.348 -10.560   0.000  1.00  0.00    -0.149 OA
HETATM    9  C   UNL     1       5.492  -3.323   0.000  1.00  0.00     0.213 A 
HETATM   10  N   UNL     1       4.647  -8.310   0.000  1.00  0.00    -0.196 N 
HETATM   11  C   UNL     1       4.647  -9.810   0.000  1.00  0.00     0.281 A 
HETATM   12  C   UNL     1       5.492  -4.823   0.000  1.00  0.00     0.149 A 
HETATM   13  H   UNL     1       6.790  -1.073   0.000  1.00  0.00     0.171 HD
HETATM   14  N   UNL     1       5.946  -7.560   0.000  1.00  0.00    -0.157 NA
HETATM   15  N   UNL     1       6.790  -5.573   0.000  1.00  0.00    -0.042 NA
HETATM   16  N   UNL     1       6.790  -2.573   0.000  1.00  0.00    -0.286 N 
HETATM   17  N   UNL     1       5.946 -10.560   0.000  1.00  0.00    -0.295 N 
HETATM   18  H   UNL     1       5.946 -12.060   0.000  1.00  0.00     0.171 HD
HETATM   19  N   UNL     1       8.090  -4.823   0.000  1.00  0.00     0.294 N 
HETATM   20  C   UNL     1       7.245  -8.310   0.000  1.00  0.00     0.171 A 
HETATM   21  C   UNL     1       7.245  -9.810   0.000  1.00  0.00     0.215 A 
HETATM   22  C   UNL     1       8.090  -3.323   0.000  1.00  0.00     0.417 A 
HETATM   23  O   UNL     1       9.389  -2.573   0.000  1.00  0.00    -0.140 OA
HETATM   24  O   UNL     1       8.544 -10.560   0.000  1.00  0.00    -0.169 OA
HETATM   25  H   UNL     1       9.389  -5.573   0.000  1.00  0.00     0.364 HD
HETATM   26  C   UNL     1       8.544  -7.560   0.000  1.00  0.00     0.181 A 
HETATM   27  O   UNL     1       9.843  -8.310   0.000  1.00  0.00    -0.186 OA
HETATM   28  O   UNL     1       8.544  -6.060   0.000  1.00  0.00     0.000 OA
ENDROOT
TORSDOF 0
