REMARK  4 active torsions:
REMARK  status: ('A' for Active; 'I' for Inactive)
REMARK       I    between atoms: N_1  and  C_22 
REMARK       I    between atoms: N_2  and  C_24 
REMARK    1  A    between atoms: C_5  and  N_26 
REMARK    2  A    between atoms: C_6  and  O_27 
REMARK    3  A    between atoms: C_15  and  N_21 
REMARK    4  A    between atoms: C_17  and  O_19 
REMARK       I    between atoms: N_21  and  C_22 
REMARK       I    between atoms: C_24  and  N_26 
ROOT
HETATM    1  N   UNL     1       6.770   7.774   0.000  1.00  0.00    -0.309 N 
HETATM    2  N   UNL     1       9.368   9.274   0.000  1.00  0.00    -0.309 N 
HETATM    3  C   UNL     1       8.069  10.024   0.000  1.00  0.00     0.129 A 
HETATM    4  C   UNL     1       6.770   9.274   0.000  1.00  0.00     0.129 A 
HETATM    5  C   UNL     1       9.368   7.774   0.000  1.00  0.00     0.129 A 
HETATM    6  C   UNL     1       8.069   7.024   0.000  1.00  0.00     0.129 A 
HETATM    7  N   UNL     1       5.471   5.524   0.000  1.00  0.00    -0.214 NA
HETATM    8  C   UNL     1       5.471   7.024   0.000  1.00  0.00     0.277 C 
HETATM    9  O   UNL     1       4.172   7.774   0.000  1.00  0.00    -0.149 OA
HETATM   10  C   UNL     1      10.667  10.024   0.000  1.00  0.00     0.277 C 
HETATM   11  O   UNL     1      10.667  11.524   0.000  1.00  0.00    -0.149 OA
HETATM   12  N   UNL     1      11.966   9.274   0.000  1.00  0.00    -0.214 NA
ENDROOT
BRANCH   7  13
HETATM   13  C   UNL     1       4.172   4.774   0.000  1.00  0.00     0.041 A 
HETATM   14  C   UNL     1       2.873   5.524   0.000  1.00  0.00     0.044 A 
HETATM   15  C   UNL     1       1.574   4.774   0.000  1.00  0.00     0.036 A 
HETATM   16  C   UNL     1       1.574   3.275   0.000  1.00  0.00     0.116 A 
HETATM   17  C   UNL     1       2.873   2.525   0.000  1.00  0.00     0.036 A 
HETATM   18  C   UNL     1       4.172   3.275   0.000  1.00  0.00     0.044 A 
BRANCH  16  19
HETATM   19  O   UNL     1       0.275   2.525   0.000  1.00  0.00    -0.354 OA
HETATM   20  C   UNL     1      -1.024   3.275   0.000  1.00  0.00     0.174 C 
ENDBRANCH  16  19
ENDBRANCH   7  13
BRANCH  12  21
HETATM   21  C   UNL     1      13.265  10.024   0.000  1.00  0.00     0.041 A 
HETATM   22  C   UNL     1      13.265  11.524   0.000  1.00  0.00     0.044 A 
HETATM   23  C   UNL     1      14.564  12.274   0.000  1.00  0.00     0.036 A 
HETATM   24  C   UNL     1      15.863  11.524   0.000  1.00  0.00     0.116 A 
HETATM   25  C   UNL     1      15.863  10.024   0.000  1.00  0.00     0.036 A 
HETATM   26  C   UNL     1      14.564   9.274   0.000  1.00  0.00     0.044 A 
BRANCH  24  27
HETATM   27  O   UNL     1      17.162  12.274   0.000  1.00  0.00    -0.354 OA
HETATM   28  C   UNL     1      17.162  13.774   0.000  1.00  0.00     0.174 C 
ENDBRANCH  24  27
ENDBRANCH  12  21
TORSDOF 4
