REMARK  2 active torsions:
REMARK  status: ('A' for Active; 'I' for Inactive)
REMARK    1  A    between atoms: C_11  and  C_12 
REMARK    2  A    between atoms: C_12  and  C_16 
ROOT
HETATM    1  C   UNL     1      -4.500   4.647   0.000  1.00  0.00     0.093 A 
HETATM    2  C   UNL     1      -3.000   4.647   0.000  1.00  0.00     0.079 A 
HETATM    3  C   UNL     1      -2.250   5.946   0.000  1.00  0.00     0.188 A 
HETATM    4  N   UNL     1      -5.250   5.946   0.000  1.00  0.00    -0.260 NA
HETATM    5  N   UNL     1      -3.000   7.245   0.000  1.00  0.00    -0.223 N 
HETATM    6  C   UNL     1      -4.500   7.245   0.000  1.00  0.00     0.134 A 
HETATM    7  N   UNL     1      -2.537   8.672   0.000  1.00  0.00    -0.114 NA
HETATM    8  C   UNL     1      -4.963   8.672   0.000  1.00  0.00     0.086 A 
HETATM    9  C   UNL     1      -3.750   9.553   0.000  1.00  0.00     0.123 A 
HETATM   10  C   UNL     1      -5.287   1.594   0.000  1.00  0.00     0.004 A 
HETATM   11  C   UNL     1      -4.537   2.893   0.000  1.00  0.00     0.022 A 
HETATM   12  C   UNL     1      -3.038   2.893   0.000  1.00  0.00     0.010 A 
HETATM   13  C   UNL     1      -2.288   1.594   0.000  1.00  0.00     0.001 A 
HETATM   14  C   UNL     1      -3.038   0.295   0.000  1.00  0.00     0.000 A 
HETATM   15  C   UNL     1      -4.537   0.295   0.000  1.00  0.00     0.000 A 
HETATM   16  C   UNL     1      -3.263   1.594   0.000  1.00  0.00     0.001 A 
HETATM   17  C   UNL     1      -2.250   3.348   0.000  1.00  0.00     0.009 A 
HETATM   18  C   UNL     1      -5.250   3.348   0.000  1.00  0.00     0.023 A 
HETATM   19  O   UNL     1      -0.750   5.946   0.000  1.00  0.00    -0.174 OA
ENDROOT
TORSDOF 2
