REMARK  0 active torsions:
REMARK  status: ('A' for Active; 'I' for Inactive)
ROOT
HETATM    1  O   UNL     1      -4.178  -0.826   0.000  1.00  0.00     0.000 OA
HETATM    2  C   UNL     1      -6.776  -0.826   0.000  1.00  0.00     0.012 A 
HETATM    3  C   UNL     1      -5.910  -2.326   0.000  1.00  0.00     0.041 A 
HETATM    4  C   UNL     1      -5.477  -1.576   0.000  1.00  0.00     0.039 A 
HETATM    5  C   UNL     1      -8.075  -1.576   0.000  1.00  0.00     0.001 A 
HETATM    6  C   UNL     1      -5.477  -3.076   0.000  1.00  0.00     0.084 A 
HETATM    7  C   UNL     1      -8.075  -3.076   0.000  1.00  0.00     0.002 A 
HETATM    8  C   UNL     1      -6.776  -3.826   0.000  1.00  0.00     0.027 A 
HETATM    9  C   UNL     1      -6.776   0.674   0.000  1.00  0.00     0.001 C 
HETATM   10  C   UNL     1      -4.761  -3.291   0.000  1.00  0.00     0.014 A 
HETATM   11  N   UNL     1      -4.178  -3.826   0.000  1.00  0.00    -0.210 NA
HETATM   12  C   UNL     1      -2.879  -3.076   0.000  1.00  0.00     0.203 A 
HETATM   13  S   UNL     1      -1.580  -3.826   0.000  1.00  0.00    -0.043 SA
HETATM   14  N   UNL     1      -2.879  -1.576   0.000  1.00  0.00    -0.104 N 
HETATM   15  N   UNL     1      -1.580  -0.826   0.000  1.00  0.00    -0.021 N 
HETATM   16  C   UNL     1      -4.761  -1.362   0.000  1.00  0.00    -0.046 A 
ENDROOT
TORSDOF 0
