REMARK  4 active torsions:
REMARK  status: ('A' for Active; 'I' for Inactive)
REMARK    1  A    between atoms: C_3  and  O_19 
REMARK    2  A    between atoms: C_16  and  C_18 
REMARK    3  A    between atoms: C_18  and  O_21 
REMARK    4  A    between atoms: O_21  and  C_22 
ROOT
HETATM    1  C   UNL     1       1.140   5.179   0.000  1.00  0.00     0.012 A 
HETATM    2  C   UNL     1       1.028   3.683   0.000  1.00  0.00     0.053 A 
HETATM    3  C   UNL     1       2.268   2.838   0.000  1.00  0.00     0.094 A 
HETATM    4  C   UNL     1       2.492   5.830   0.000  1.00  0.00     0.030 A 
HETATM    5  C   UNL     1       3.619   3.489   0.000  1.00  0.00     0.115 A 
HETATM    6  C   UNL     1       3.731   4.985   0.000  1.00  0.00     0.019 A 
HETATM    7  C   UNL     1       4.970   5.830   0.000  1.00  0.00     0.070 A 
HETATM    8  O   UNL     1       4.718   2.469   0.000  1.00  0.00    -0.309 OA
HETATM    9  C   UNL     1       6.202   2.693   0.000  1.00  0.00     0.090 A 
HETATM   10  N   UNL     1       6.404   5.388   0.000  1.00  0.00    -0.354 N 
HETATM   11  H   UNL     1       7.424   6.488   0.000  1.00  0.00     0.166 HD
HETATM   12  C   UNL     1       6.952   1.394   0.000  1.00  0.00     0.057 A 
HETATM   13  C   UNL     1       6.952   3.992   0.000  1.00  0.00     0.057 A 
HETATM   14  C   UNL     1       8.452   1.394   0.000  1.00  0.00     0.033 A 
HETATM   15  C   UNL     1       8.452   3.992   0.000  1.00  0.00     0.071 A 
HETATM   16  C   UNL     1       9.202   2.693   0.000  1.00  0.00     0.011 A 
ENDROOT
BRANCH  16  17
HETATM   17  C   UNL     1      10.702   2.693   0.000  1.00  0.00     0.221 C 
HETATM   18  O   UNL     1      11.452   1.394   0.000  1.00  0.00    -0.164 OA
BRANCH  17  19
HETATM   19  O   UNL     1      11.452   3.992   0.000  1.00  0.00    -0.309 OA
BRANCH  19  20
HETATM   20  C   UNL     1      10.702   5.291   0.000  1.00  0.00     0.151 C 
HETATM   21  C   UNL     1      11.452   6.590   0.000  1.00  0.00     0.035 C 
ENDBRANCH  19  20
ENDBRANCH  17  19
ENDBRANCH  16  17
BRANCH   3  22
HETATM   22  O   UNL     1       2.155   1.343   0.000  1.00  0.00    -0.330 OA
HETATM   23  C   UNL     1       0.804   0.692   0.000  1.00  0.00     0.181 C 
ENDBRANCH   3  22
TORSDOF 4
