REMARK  1 active torsions:
REMARK  status: ('A' for Active; 'I' for Inactive)
REMARK    1  A    between atoms: O_7  and  C_13 
ROOT
HETATM    1  O   UNL     1      -0.912  -7.896   0.000  1.00  0.00    -0.223 OA
HETATM    2  C   UNL     1       0.387  -8.646   0.000  1.00  0.00     0.157 A 
HETATM    3  C   UNL     1       0.387 -10.146   0.000  1.00  0.00     0.060 A 
HETATM    4  C   UNL     1       1.687 -10.896   0.000  1.00  0.00     0.098 A 
HETATM    5  O   UNL     1       1.998 -12.363   0.000  1.00  0.00    -0.364 OA
HETATM    6  C   UNL     1       3.490 -12.520   0.000  1.00  0.00     0.093 A 
HETATM    7  O   UNL     1       1.687  -7.896   0.000  1.00  0.00     0.000 OA
HETATM    8  C   UNL     1       1.687  -9.396   0.000  1.00  0.00     0.058 A 
HETATM    9  C   UNL     1       2.986 -10.146   0.000  1.00  0.00     0.030 A 
HETATM   10  C   UNL     1       4.100 -11.150   0.000  1.00  0.00     0.033 A 
HETATM   11  C   UNL     1       3.297  -8.679   0.000  1.00  0.00     0.008 A 
HETATM   12  C   UNL     1       5.527 -10.686   0.000  1.00  0.00     0.052 A 
HETATM   13  C   UNL     1       2.183  -7.675   0.000  1.00  0.00     0.001 A 
HETATM   14  C   UNL     1       4.724  -8.215   0.000  1.00  0.00     0.043 A 
HETATM   15  C   UNL     1       5.839  -9.219   0.000  1.00  0.00     0.086 A 
HETATM   16  C   UNL     1       2.494  -6.208   0.000  1.00  0.00     0.005 A 
HETATM   17  O   UNL     1       7.265  -8.755   0.000  1.00  0.00    -0.200 OA
HETATM   18  O   UNL     1       6.151  -7.752   0.000  1.00  0.00     0.000 OA
HETATM   19  C   UNL     1       3.921  -5.744   0.000  1.00  0.00     0.030 A 
HETATM   20  C   UNL     1       5.036  -6.748   0.000  1.00  0.00     0.030 A 
HETATM   21  C   UNL     1       6.462  -6.285   0.000  1.00  0.00     0.026 A 
HETATM   22  C   UNL     1       4.233  -4.277   0.000  1.00  0.00     0.103 A 
HETATM   23  C   UNL     1       1.651  -3.585   0.000  1.00  0.00     0.037 A 
HETATM   24  C   UNL     1       6.774  -4.817   0.000  1.00  0.00     0.224 A 
HETATM   25  O   UNL     1       5.660  -3.814   0.000  1.00  0.00    -0.314 OA
HETATM   26  C   UNL     1       3.118  -3.273   0.000  1.00  0.00     0.056 A 
HETATM   27  C   UNL     1       0.901  -2.286   0.000  1.00  0.00     0.142 A 
HETATM   28  O   UNL     1       8.201  -4.354   0.000  1.00  0.00    -0.164 OA
HETATM   29  C   UNL     1       3.275  -1.782   0.000  1.00  0.00     0.145 A 
HETATM   30  O   UNL     1       1.905  -1.172   0.000  1.00  0.00    -0.354 OA
HETATM   31  C   UNL     1       3.333 -14.012   0.000  1.00  0.00     0.030 C 
HETATM   32  C   UNL     1       4.982 -12.677   0.000  1.00  0.00     0.030 A 
HETATM   33  C   UNL     1       3.609  -7.212   0.000  1.00  0.00     0.009 A 
HETATM   34  C   UNL     1       2.806  -4.741   0.000  1.00  0.00     0.031 A 
ENDROOT
TORSDOF 1
