REMARK  4 active torsions:
REMARK  status: ('A' for Active; 'I' for Inactive)
REMARK    1  A    between atoms: C_8  and  C_9 
REMARK    2  A    between atoms: C_9  and  O_10 
REMARK    3  A    between atoms: O_10  and  C_11 
REMARK    4  A    between atoms: C_14  and  C_17 
ROOT
HETATM    1  N   UNL     1     -15.406  -3.000   0.000  1.00  0.00    -0.268 N 
HETATM    2  C   UNL     1     -15.406  -4.500   0.000  1.00  0.00     0.266 A 
HETATM    3  N   UNL     1     -14.107  -5.250   0.000  1.00  0.00    -0.275 N 
HETATM    4  C   UNL     1     -12.808  -4.500   0.000  1.00  0.00     0.165 A 
HETATM    5  C   UNL     1     -12.808  -3.000   0.000  1.00  0.00     0.154 A 
HETATM    6  C   UNL     1     -14.107  -2.250   0.000  1.00  0.00     0.217 A 
HETATM    7  N   UNL     1     -11.382  -4.963   0.000  1.00  0.00    -0.227 NA
HETATM    8  C   UNL     1     -10.500  -3.750   0.000  1.00  0.00     0.236 A 
HETATM    9  O   UNL     1     -14.107  -0.750   0.000  1.00  0.00    -0.169 OA
HETATM   10  O   UNL     1     -16.705  -5.250   0.000  1.00  0.00    -0.150 OA
HETATM   11  C   UNL     1     -14.107  -6.750   0.000  1.00  0.00     0.136 C 
HETATM   12  N   UNL     1     -11.382  -2.537   0.000  1.00  0.00    -0.239 NA
HETATM   13  C   UNL     1     -16.705  -2.250   0.000  1.00  0.00     0.136 C 
ENDROOT
BRANCH   8  14
HETATM   14  C   UNL     1      -9.000  -3.750   0.000  1.00  0.00     0.192 C 
BRANCH  14  15
HETATM   15  O   UNL     1      -8.250  -5.049   0.000  1.00  0.00    -0.352 OA
BRANCH  15  16
HETATM   16  C   UNL     1      -6.750  -5.049   0.000  1.00  0.00     0.116 A 
HETATM   17  C   UNL     1      -6.000  -6.348   0.000  1.00  0.00     0.030 A 
HETATM   18  C   UNL     1      -4.500  -6.348   0.000  1.00  0.00     0.003 A 
HETATM   19  C   UNL     1      -3.750  -5.049   0.000  1.00  0.00     0.000 A 
HETATM   20  C   UNL     1      -4.500  -3.750   0.000  1.00  0.00     0.003 A 
HETATM   21  C   UNL     1      -6.000  -3.750   0.000  1.00  0.00     0.030 A 
BRANCH  19  22
HETATM   22  C   UNL     1      -2.250  -5.049   0.000  1.00  0.00     0.000 A 
HETATM   23  C   UNL     1      -1.500  -3.750   0.000  1.00  0.00     0.000 A 
HETATM   24  C   UNL     1      -0.750  -5.049   0.000  1.00  0.00     0.000 A 
HETATM   25  C   UNL     1      -1.500  -6.348   0.000  1.00  0.00     0.000 A 
ENDBRANCH  19  22
ENDBRANCH  15  16
ENDBRANCH  14  15
ENDBRANCH   8  14
TORSDOF 4
