REMARK  2 active torsions:
REMARK  status: ('A' for Active; 'I' for Inactive)
REMARK    1  A    between atoms: C_5  and  S_6 
REMARK    2  A    between atoms: C_7  and  N_8 
ROOT
HETATM    1  S   UNL     1       2.293   4.061   0.000  1.00  0.00    -0.076 SA
HETATM    2  C   UNL     1       3.793   4.061   0.000  1.00  0.00     0.089 A 
HETATM    3  C   UNL     1       4.853   5.121   0.000  1.00  0.00     0.157 A 
HETATM    4  O   UNL     1       4.853   6.621   0.000  1.00  0.00    -0.188 OA
HETATM    5  C   UNL     1       4.853   3.000   0.000  1.00  0.00     0.055 A 
HETATM    6  C   UNL     1       5.914   4.061   0.000  1.00  0.00     0.089 A 
ENDROOT
BRANCH   6   7
HETATM    7  N   UNL     1       7.414   4.061   0.000  1.00  0.00    -0.342 N 
HETATM    8  C   UNL     1       8.164   2.762   0.000  1.00  0.00     0.126 C 
HETATM    9  C   UNL     1       8.164   5.360   0.000  1.00  0.00     0.126 C 
ENDBRANCH   6   7
BRANCH   5  10
HETATM   10  S   UNL     1       4.853   1.500   0.000  1.00  0.00    -0.110 SA
HETATM   11  C   UNL     1       6.152   0.750   0.000  1.00  0.00     0.074 C 
ENDBRANCH   5  10
TORSDOF 2
