REMARK  1 active torsions:
REMARK  status: ('A' for Active; 'I' for Inactive)
REMARK    1  A    between atoms: C_9  and  C_11 
ROOT
HETATM    1  O   UNL     1      -2.223  -3.650   0.000  1.00  0.00    -0.308 OA
HETATM    2  O   UNL     1      -2.223  -6.649   0.000  1.00  0.00    -0.326 OA
HETATM    3  C   UNL     1      -4.821  -3.650   0.000  1.00  0.00     0.053 A 
HETATM    4  C   UNL     1      -6.120  -4.399   0.000  1.00  0.00     0.007 A 
HETATM    5  C   UNL     1      -3.522  -4.399   0.000  1.00  0.00     0.095 A 
HETATM    6  C   UNL     1      -3.522  -5.899   0.000  1.00  0.00     0.091 A 
HETATM    7  C   UNL     1      -6.120  -5.899   0.000  1.00  0.00     0.007 A 
HETATM    8  C   UNL     1      -4.821  -6.649   0.000  1.00  0.00     0.053 A 
HETATM    9  C   UNL     1      -0.924  -4.399   0.000  1.00  0.00     0.148 A 
HETATM   10  C   UNL     1      -0.924  -5.899   0.000  1.00  0.00     0.203 A 
ENDROOT
BRANCH   9  11
HETATM   11  C   UNL     1       0.375  -3.650   0.000  1.00  0.00     0.195 A 
HETATM   12  O   UNL     1       1.674  -4.399   0.000  1.00  0.00    -0.314 OA
HETATM   13  C   UNL     1       2.973  -3.650   0.000  1.00  0.00     0.153 A 
HETATM   14  C   UNL     1       2.973  -2.150   0.000  1.00  0.00     0.059 A 
HETATM   15  C   UNL     1       1.674  -1.399   0.000  1.00  0.00     0.131 A 
HETATM   16  N   UNL     1       0.375  -2.150   0.000  1.00  0.00    -0.247 NA
ENDBRANCH   9  11
TORSDOF 1
