REMARK  2 active torsions:
REMARK  status: ('A' for Active; 'I' for Inactive)
REMARK    1  A    between atoms: C_5  and  N_7 
REMARK    2  A    between atoms: C_9  and  C_13 
ROOT
HETATM    1  O   UNL     1      -1.624  -3.410   0.000  1.00  0.00    -0.174 OA
HETATM    2  N   UNL     1      -0.307  -1.084   0.000  1.00  0.00    -0.262 N 
HETATM    3  C   UNL     1      -0.373  -2.583   0.000  1.00  0.00     0.188 A 
HETATM    4  C   UNL     1       1.139  -0.684   0.000  1.00  0.00     0.095 A 
HETATM    5  C   UNL     1       1.032  -3.108   0.000  1.00  0.00     0.136 A 
HETATM    6  S   UNL     1       1.966  -1.935   0.000  1.00  0.00    -0.087 SA
ENDROOT
BRANCH   2   7
HETATM    7  C   UNL     1      -1.480  -0.150   0.000  1.00  0.00     0.193 A 
HETATM    8  S   UNL     1      -1.414   1.349   0.000  1.00  0.00    -0.054 SA
HETATM    9  C   UNL     1      -2.819   1.875   0.000  1.00  0.00     0.181 A 
HETATM   10  N   UNL     1      -3.753   0.701   0.000  1.00  0.00    -0.086 NA
HETATM   11  N   UNL     1      -2.926  -0.550   0.000  1.00  0.00    -0.154 NA
ENDBRANCH   2   7
BRANCH   4  12
HETATM   12  C   UNL     1       1.665   0.721   0.000  1.00  0.00     0.025 A 
HETATM   13  C   UNL     1       0.837   1.972   0.000  1.00  0.00     0.035 A 
HETATM   14  C   UNL     1       1.772   3.146   0.000  1.00  0.00     0.017 A 
HETATM   15  C   UNL     1       3.176   2.620   0.000  1.00  0.00     0.062 A 
HETATM   16  S   UNL     1       3.110   1.121   0.000  1.00  0.00    -0.116 SA
ENDBRANCH   4  12
TORSDOF 2
