REMARK  4 active torsions:
REMARK  status: ('A' for Active; 'I' for Inactive)
REMARK    1  A    between atoms: C_3  and  C_5 
REMARK    2  A    between atoms: N_6  and  C_18 
REMARK    3  A    between atoms: C_7  and  N_22 
REMARK       I    between atoms: C_9  and  N_22 
REMARK       I    between atoms: C_9  and  N_23 
REMARK    4  A    between atoms: C_11  and  N_23 
ROOT
HETATM    1  N   UNL     1       6.554   2.629   0.000  1.00  0.00    -0.173 NA
HETATM    2  C   UNL     1       5.255   1.879   0.000  1.00  0.00     0.078 A 
HETATM    3  N   UNL     1       7.669   1.625   0.000  1.00  0.00    -0.242 N 
HETATM    4  C   UNL     1       7.059   0.255   0.000  1.00  0.00     0.146 A 
HETATM    5  C   UNL     1       5.567   0.411   0.000  1.00  0.00     0.112 A 
ENDROOT
BRANCH   4   6
HETATM    6  N   UNL     1       7.809  -1.044   0.000  1.00  0.00    -0.189 NA
HETATM    7  C   UNL     1       7.059  -2.344   0.000  1.00  0.00     0.301 C 
HETATM    8  O   UNL     1       5.559  -2.344   0.000  1.00  0.00    -0.147 OA
HETATM    9  N   UNL     1       7.809  -3.643   0.000  1.00  0.00    -0.212 NA
BRANCH   9  10
HETATM   10  C   UNL     1       9.309  -3.643   0.000  1.00  0.00     0.041 A 
HETATM   11  C   UNL     1      10.059  -2.344   0.000  1.00  0.00     0.047 A 
HETATM   12  C   UNL     1      11.559  -2.344   0.000  1.00  0.00     0.040 A 
HETATM   13  C   UNL     1      12.309  -3.643   0.000  1.00  0.00     0.014 A 
HETATM   14  C   UNL     1      11.559  -4.942   0.000  1.00  0.00     0.040 A 
HETATM   15 CL   UNL     1      13.809  -3.643   0.000  1.00  0.00    -0.092 Cl
HETATM   16  C   UNL     1      10.059  -4.942   0.000  1.00  0.00     0.047 A 
ENDBRANCH   9  10
ENDBRANCH   4   6
BRANCH   3  17
HETATM   17  C   UNL     1       9.136   1.937   0.000  1.00  0.00     0.088 C 
HETATM   18  C   UNL     1       8.825   3.404   0.000  1.00  0.00     0.025 C 
HETATM   19  C   UNL     1       9.448   0.469   0.000  1.00  0.00     0.025 C 
HETATM   20  C   UNL     1      10.604   2.249   0.000  1.00  0.00     0.025 C 
ENDBRANCH   3  17
BRANCH   2  21
HETATM   21  C   UNL     1       3.885   2.489   0.000  1.00  0.00    -0.028 A 
HETATM   22  C   UNL     1       3.003   3.702   0.000  1.00  0.00     0.028 A 
HETATM   23  C   UNL     1       2.393   2.332   0.000  1.00  0.00     0.028 A 
ENDBRANCH   2  21
TORSDOF 4
