REMARK  1 active torsions:
REMARK  status: ('A' for Active; 'I' for Inactive)
REMARK    1  A    between atoms: C_4  and  C_6 
ROOT
HETATM    1  C   UNL     1       4.558   3.390   0.000  1.00  0.00     0.164 A 
HETATM    2  N   UNL     1       5.440   4.604   0.000  1.00  0.00    -0.146 NA
HETATM    3  N   UNL     1       5.440   2.177   0.000  1.00  0.00    -0.318 N 
HETATM    4  H   UNL     1       4.976   0.750   0.000  1.00  0.00     0.169 HD
HETATM    5  N   UNL     1       6.867   4.140   0.000  1.00  0.00    -0.210 N 
HETATM    6  C   UNL     1       6.867   2.640   0.000  1.00  0.00     0.170 A 
HETATM    7  S   UNL     1       8.080   1.758   0.000  1.00  0.00    -0.077 SA
HETATM    8  C   UNL     1       9.450   2.369   0.000  1.00  0.00     0.071 A 
HETATM    9  C   UNL     1       9.607   3.860   0.000  1.00  0.00     0.059 A 
HETATM   10  C   UNL     1       8.394   4.742   0.000  1.00  0.00     0.077 A 
ENDROOT
BRANCH   1  11
HETATM   11  C   UNL     1       3.058   3.390   0.000  1.00  0.00     0.039 A 
HETATM   12  S   UNL     1       2.177   2.177   0.000  1.00  0.00    -0.115 SA
HETATM   13  C   UNL     1       0.750   2.640   0.000  1.00  0.00     0.062 A 
HETATM   14  C   UNL     1       0.750   4.140   0.000  1.00  0.00     0.017 A 
HETATM   15  C   UNL     1       2.177   4.604   0.000  1.00  0.00     0.037 A 
ENDBRANCH   1  11
TORSDOF 1
