REMARK  2 active torsions:
REMARK  status: ('A' for Active; 'I' for Inactive)
REMARK    1  A    between atoms: C_4  and  C_6 
REMARK    2  A    between atoms: C_11  and  S_12 
ROOT
HETATM    1  C   UNL     1       4.558   3.390   0.000  1.00  0.00     0.165 A 
HETATM    2  N   UNL     1       5.440   4.604   0.000  1.00  0.00    -0.128 NA
HETATM    3  N   UNL     1       5.440   2.177   0.000  1.00  0.00    -0.316 N 
HETATM    4  H   UNL     1       4.976   0.750   0.000  1.00  0.00     0.169 HD
HETATM    5  N   UNL     1       6.867   4.140   0.000  1.00  0.00    -0.122 NA
HETATM    6  C   UNL     1       6.867   2.640   0.000  1.00  0.00     0.190 A 
ENDROOT
BRANCH   1   7
HETATM    7  C   UNL     1       3.058   3.390   0.000  1.00  0.00     0.039 A 
HETATM    8  S   UNL     1       2.177   2.177   0.000  1.00  0.00    -0.115 SA
HETATM    9  C   UNL     1       0.750   2.640   0.000  1.00  0.00     0.062 A 
HETATM   10  C   UNL     1       0.750   4.140   0.000  1.00  0.00     0.017 A 
HETATM   11  C   UNL     1       2.177   4.604   0.000  1.00  0.00     0.037 A 
ENDBRANCH   1   7
BRANCH   6  12
HETATM   12  S   UNL     1       8.080   1.758   0.000  1.00  0.00    -0.075 SA
HETATM   13  C   UNL     1       9.450   2.369   0.000  1.00  0.00     0.077 C 
ENDBRANCH   6  12
TORSDOF 2
