REMARK  1 active torsions:
REMARK  status: ('A' for Active; 'I' for Inactive)
REMARK    1  A    between atoms: C_9  and  C_10 
ROOT
HETATM    1  C   UNL     1      -9.772   5.003   0.000  1.00  0.00     0.040 A 
HETATM    2  C   UNL     1      -9.772   3.503   0.000  1.00  0.00    -0.039 A 
HETATM    3  C   UNL     1      -8.473   2.753   0.000  1.00  0.00     0.118 A 
HETATM    4  C   UNL     1      -7.174   3.503   0.000  1.00  0.00     0.030 A 
HETATM    5  C   UNL     1      -5.875   2.753   0.000  1.00  0.00     0.020 A 
HETATM    6  C   UNL     1      -4.576   3.503   0.000  1.00  0.00     0.004 A 
HETATM    7  C   UNL     1      -4.576   5.003   0.000  1.00  0.00     0.005 A 
HETATM    8  C   UNL     1      -6.882   0.857   0.000  1.00  0.00     0.050 A 
HETATM    9  C   UNL     1      -5.405   1.118   0.000  1.00  0.00    -0.048 A 
HETATM   10  C   UNL     1     -11.071   2.753   0.000  1.00  0.00     0.024 C 
HETATM   11  C   UNL     1      -7.174   2.003   0.000  1.00  0.00     0.038 A 
HETATM   12  C   UNL     1      -4.779   6.777   0.000  1.00  0.00     0.005 A 
HETATM   13  O   UNL     1      -9.437   1.604   0.000  1.00  0.00    -0.225 OA
HETATM   14  C   UNL     1      -7.174   5.003   0.000  1.00  0.00     0.046 A 
HETATM   15  C   UNL     1      -8.473   5.753   0.000  1.00  0.00     0.146 A 
HETATM   16  O   UNL     1      -8.085   7.202   0.000  1.00  0.00    -0.341 OA
HETATM   17  C   UNL     1      -6.585   7.202   0.000  1.00  0.00     0.268 A 
HETATM   18  C   UNL     1      -5.875   5.753   0.000  1.00  0.00     0.052 A 
HETATM   19  O   UNL     1      -5.791   8.475   0.000  1.00  0.00    -0.190 OA
ENDROOT
BRANCH   9  20
HETATM   20  C   UNL     1      -4.441  -0.031   0.000  1.00  0.00    -0.020 A 
HETATM   21  C   UNL     1      -4.804  -1.487   0.000  1.00  0.00     0.056 A 
HETATM   22  C   UNL     1      -3.532  -2.282   0.000  1.00  0.00     0.147 A 
HETATM   23  O   UNL     1      -2.382  -1.317   0.000  1.00  0.00    -0.349 OA
HETATM   24  C   UNL     1      -2.944   0.073   0.000  1.00  0.00     0.164 A 
ENDBRANCH   9  20
TORSDOF 1
