REMARK  2 active torsions:
REMARK  status: ('A' for Active; 'I' for Inactive)
REMARK    1  A    between atoms: C_9  and  N_23 
REMARK       I    between atoms: C_11  and  N_23 
REMARK       I    between atoms: C_11  and  N_24 
REMARK    2  A    between atoms: C_14  and  C_16 
REMARK       I    between atoms: C_14  and  N_24 
ROOT
HETATM    1  C   UNL     1      -0.017   0.398   0.000  1.00  0.00     0.366 C 
HETATM    2  O   UNL     1      -0.406  -1.051   0.000  1.00  0.00    -0.168 OA
HETATM    3  O   UNL     1       1.657  -1.803   0.000  1.00  0.00    -0.169 OA
HETATM    4  C   UNL     1       2.292  -0.444   0.000  1.00  0.00     0.216 C 
HETATM    5  N   UNL     1      -1.077   1.459   0.000  1.00  0.00    -0.221 NA
HETATM    6  N   UNL     1       1.432   0.785   0.000  1.00  0.00    -0.194 NA
ENDROOT
BRANCH   5   7
HETATM    7  C   UNL     1      -2.437   0.826   0.000  1.00  0.00     0.092 A 
HETATM    8  C   UNL     1      -2.568  -0.668   0.000  1.00  0.00     0.088 A 
HETATM    9  C   UNL     1      -3.928  -1.301   0.000  1.00  0.00     0.070 A 
HETATM   10  C   UNL     1      -5.156  -0.440   0.000  1.00  0.00     0.160 A 
HETATM   11 CL   UNL     1      -4.060  -2.795   0.000  1.00  0.00    -0.084 Cl
HETATM   12  F   UNL     1      -6.516  -1.073   0.000  1.00  0.00    -0.203 F 
HETATM   13  C   UNL     1      -5.025   1.054   0.000  1.00  0.00     0.114 A 
HETATM   14 CL   UNL     1      -6.253   1.915   0.000  1.00  0.00    -0.078 Cl
HETATM   15  C   UNL     1      -3.665   1.687   0.000  1.00  0.00     0.166 A 
HETATM   16  F   UNL     1      -3.533   3.182   0.000  1.00  0.00    -0.202 F 
ENDBRANCH   5   7
BRANCH   4  17
HETATM   17  C   UNL     1       3.786  -0.314   0.000  1.00  0.00     0.090 A 
HETATM   18  C   UNL     1       4.421   1.045   0.000  1.00  0.00     0.123 A 
HETATM   19  F   UNL     1       3.562   2.274   0.000  1.00  0.00    -0.209 F 
HETATM   20  C   UNL     1       5.915   1.175   0.000  1.00  0.00     0.057 A 
HETATM   21  C   UNL     1       6.775  -0.054   0.000  1.00  0.00     0.014 A 
HETATM   22  C   UNL     1       6.140  -1.413   0.000  1.00  0.00     0.057 A 
HETATM   23  C   UNL     1       4.646  -1.543   0.000  1.00  0.00     0.123 A 
HETATM   24  F   UNL     1       4.011  -2.902   0.000  1.00  0.00    -0.209 F 
ENDBRANCH   4  17
TORSDOF 2
