REMARK  3 active torsions:
REMARK  status: ('A' for Active; 'I' for Inactive)
REMARK    1  A    between atoms: C_4  and  C_6 
REMARK    2  A    between atoms: C_10  and  S_12 
REMARK    3  A    between atoms: S_12  and  C_14 
ROOT
HETATM    1  C   UNL     1       9.607   3.860   0.000  1.00  0.00    -0.141 C 
HETATM    2  C   UNL     1       9.450   2.369   0.000  1.00  0.00     0.128 C 
HETATM    3  C   UNL     1       9.764   5.352   0.000  1.00  0.00     0.077 C 
ENDROOT
BRANCH   2   4
HETATM    4  S   UNL     1       8.080   1.758   0.000  1.00  0.00    -0.062 SA
BRANCH   4   5
HETATM    5  C   UNL     1       6.867   2.640   0.000  1.00  0.00     0.191 A 
HETATM    6  N   UNL     1       5.440   2.177   0.000  1.00  0.00    -0.315 N 
HETATM    7  C   UNL     1       4.558   3.390   0.000  1.00  0.00     0.182 A 
HETATM    8  H   UNL     1       4.976   0.750   0.000  1.00  0.00     0.169 HD
HETATM    9  N   UNL     1       5.440   4.604   0.000  1.00  0.00    -0.127 NA
HETATM   10  N   UNL     1       6.867   4.140   0.000  1.00  0.00    -0.122 NA
BRANCH   7  11
HETATM   11  C   UNL     1       3.058   3.390   0.000  1.00  0.00     0.107 A 
HETATM   12  O   UNL     1       2.177   2.177   0.000  1.00  0.00    -0.332 OA
HETATM   13  C   UNL     1       0.750   2.640   0.000  1.00  0.00     0.149 A 
HETATM   14  C   UNL     1       0.750   4.140   0.000  1.00  0.00     0.040 A 
HETATM   15  C   UNL     1       2.177   4.604   0.000  1.00  0.00     0.057 A 
ENDBRANCH   7  11
ENDBRANCH   4   5
ENDBRANCH   2   4
TORSDOF 3
