REMARK  3 active torsions:
REMARK  status: ('A' for Active; 'I' for Inactive)
REMARK    1  A    between atoms: C_3  and  C_16 
REMARK    2  A    between atoms: C_5  and  N_22 
REMARK    3  A    between atoms: C_7  and  C_9 
REMARK       I    between atoms: C_7  and  N_22 
ROOT
HETATM    1  N   UNL     1      -9.341  -6.821   0.000  1.00  0.00    -0.176 NA
HETATM    2  N   UNL     1      -8.127  -5.939   0.000  1.00  0.00    -0.263 N 
HETATM    3  C   UNL     1      -8.877  -8.248   0.000  1.00  0.00     0.078 A 
HETATM    4  H   UNL     1      -8.127  -4.439   0.000  1.00  0.00     0.190 HD
HETATM    5  C   UNL     1      -6.914  -6.821   0.000  1.00  0.00     0.141 A 
HETATM    6  C   UNL     1      -7.377  -8.248   0.000  1.00  0.00     0.112 A 
ENDROOT
BRANCH   5   7
HETATM    7  N   UNL     1      -5.487  -6.358   0.000  1.00  0.00    -0.206 NA
HETATM    8  C   UNL     1      -5.175  -4.891   0.000  1.00  0.00     0.206 C 
HETATM    9  O   UNL     1      -6.290  -3.887   0.000  1.00  0.00    -0.170 OA
BRANCH   8  10
HETATM   10  C   UNL     1      -3.749  -4.427   0.000  1.00  0.00     0.000 A 
HETATM   11  C   UNL     1      -3.437  -2.960   0.000  1.00  0.00     0.031 A 
HETATM   12  C   UNL     1      -2.010  -2.496   0.000  1.00  0.00     0.038 A 
HETATM   13  C   UNL     1      -0.896  -3.500   0.000  1.00  0.00     0.014 A 
HETATM   14  C   UNL     1      -1.208  -4.967   0.000  1.00  0.00     0.038 A 
HETATM   15 CL   UNL     1       0.531  -3.036   0.000  1.00  0.00    -0.092 Cl
HETATM   16  C   UNL     1      -2.634  -5.431   0.000  1.00  0.00     0.031 A 
ENDBRANCH   8  10
ENDBRANCH   5   7
BRANCH   3  17
HETATM   17  C   UNL     1      -9.759  -9.461   0.000  1.00  0.00    -0.029 A 
HETATM   18  C   UNL     1      -9.149 -10.832   0.000  1.00  0.00     0.023 A 
HETATM   19  C   UNL     1     -10.031 -12.045   0.000  1.00  0.00     0.004 A 
HETATM   20  C   UNL     1     -11.523 -11.888   0.000  1.00  0.00     0.001 A 
HETATM   21  C   UNL     1     -12.133 -10.518   0.000  1.00  0.00     0.004 A 
HETATM   22  C   UNL     1     -11.251  -9.305   0.000  1.00  0.00     0.023 A 
ENDBRANCH   3  17
TORSDOF 3
