REMARK  1 active torsions:
REMARK  status: ('A' for Active; 'I' for Inactive)
REMARK    1  A    between atoms: C_14  and  O_15 
ROOT
HETATM    1  H   UNL     1      -1.024   6.274   0.000  1.00  0.00     0.171 HD
HETATM    2  O   UNL     1      -1.024   3.275   0.000  1.00  0.00    -0.151 OA
HETATM    3  N   UNL     1       0.275   5.524   0.000  1.00  0.00    -0.298 N 
HETATM    4  C   UNL     1       0.275   4.024   0.000  1.00  0.00     0.258 A 
HETATM    5  C   UNL     1       1.574   6.274   0.000  1.00  0.00     0.211 A 
HETATM    6  O   UNL     1       1.574   7.774   0.000  1.00  0.00    -0.173 OA
HETATM    7  N   UNL     1       1.574   3.275   0.000  1.00  0.00    -0.318 N 
HETATM    8  H   UNL     1       1.574   1.774   0.000  1.00  0.00     0.169 HD
HETATM    9  C   UNL     1       2.873   4.024   0.000  1.00  0.00     0.093 A 
HETATM   10  C   UNL     1       2.873   5.524   0.000  1.00  0.00     0.278 A 
HETATM   11  O   UNL     1       4.172   3.275   0.000  1.00  0.00     0.000 OA
HETATM   12  F   UNL     1       3.386   6.934   0.000  1.00  0.00    -0.220 F 
HETATM   13  O   UNL     1       4.863   3.854   0.000  1.00  0.00    -0.186 OA
HETATM   14  C   UNL     1       4.350   5.264   0.000  1.00  0.00     0.313 A 
HETATM   15  C   UNL     1       4.172   1.774   0.000  1.00  0.00     0.000 C 
ENDROOT
BRANCH  14  16
HETATM   16  O   UNL     1       5.314   6.413   0.000  1.00  0.00    -0.324 OA
HETATM   17  C   UNL     1       4.801   7.823   0.000  1.00  0.00     0.177 C 
ENDBRANCH  14  16
TORSDOF 1
