REMARK  2 active torsions:
REMARK  status: ('A' for Active; 'I' for Inactive)
REMARK    1  A    between atoms: C_11  and  C_12 
REMARK    2  A    between atoms: C_17  and  C_19 
ROOT
HETATM    1  C   UNL     1       4.024   2.873   0.000  1.00  0.00     0.114 A 
HETATM    2  C   UNL     1       3.275   1.574   0.000  1.00  0.00     0.021 A 
HETATM    3  C   UNL     1       5.524   2.873   0.000  1.00  0.00     0.197 A 
HETATM    4  N   UNL     1       4.024   0.275   0.000  1.00  0.00    -0.348 N 
HETATM    5  O   UNL     1       6.274   4.172   0.000  1.00  0.00    -0.174 OA
HETATM    6  H   UNL     1       3.275  -1.024   0.000  1.00  0.00     0.167 HD
HETATM    7  C   UNL     1       5.524   0.275   0.000  1.00  0.00     0.126 A 
HETATM    8  N   UNL     1       6.274   1.574   0.000  1.00  0.00    -0.197 N 
HETATM    9  C   UNL     1       6.528  -0.840   0.000  1.00  0.00     0.111 A 
HETATM   10  N   UNL     1       7.742   1.262   0.000  1.00  0.00    -0.167 NA
HETATM   11  C   UNL     1       7.899  -0.230   0.000  1.00  0.00     0.079 A 
HETATM   12  C   UNL     1       1.774   1.574   0.000  1.00  0.00     0.045 C 
ENDROOT
BRANCH  11  13
HETATM   13  C   UNL     1       9.198  -0.980   0.000  1.00  0.00    -0.029 A 
HETATM   14  C   UNL     1      10.497  -0.230   0.000  1.00  0.00     0.023 A 
HETATM   15  C   UNL     1      11.796  -0.980   0.000  1.00  0.00     0.004 A 
HETATM   16  C   UNL     1      11.796  -2.480   0.000  1.00  0.00     0.001 A 
HETATM   17  C   UNL     1      10.497  -3.230   0.000  1.00  0.00     0.004 A 
HETATM   18  C   UNL     1       9.198  -2.480   0.000  1.00  0.00     0.023 A 
BRANCH  16  19
HETATM   19  C   UNL     1      13.095  -3.230   0.000  1.00  0.00     0.000 C 
HETATM   20  C   UNL     1      12.345  -4.529   0.000  1.00  0.00     0.000 C 
HETATM   21  C   UNL     1      13.845  -1.931   0.000  1.00  0.00     0.000 C 
HETATM   22  C   UNL     1      14.394  -3.980   0.000  1.00  0.00     0.000 C 
ENDBRANCH  16  19
ENDBRANCH  11  13
TORSDOF 2
