REMARK  1 active torsions:
REMARK  status: ('A' for Active; 'I' for Inactive)
REMARK    1  A    between atoms: O_1  and  C_3 
ROOT
HETATM    1  C   UNL     1       3.348   3.000   0.000  1.00  0.00     0.078 A 
HETATM    2  C   UNL     1       3.348   1.500   0.000  1.00  0.00     0.155 A 
HETATM    3  C   UNL     1       4.647   3.750   0.000  1.00  0.00     0.054 A 
HETATM    4  N   UNL     1       4.647   0.750   0.000  1.00  0.00    -0.219 NA
HETATM    5  C   UNL     1       5.946   3.000   0.000  1.00  0.00     0.059 A 
HETATM    6  C   UNL     1       5.946   1.500   0.000  1.00  0.00     0.125 A 
HETATM    7  N   UNL     1       7.245   3.750   0.000  1.00  0.00    -0.339 N 
HETATM    8  S   UNL     1       7.245   0.750   0.000  1.00  0.00    -0.045 SA
HETATM    9  H   UNL     1       7.245   5.250   0.000  1.00  0.00     0.167 HD
HETATM   10  C   UNL     1       8.544   1.500   0.000  1.00  0.00     0.146 A 
HETATM   11  C   UNL     1       8.544   3.000   0.000  1.00  0.00     0.164 A 
HETATM   12  N   UNL     1       9.843   0.750   0.000  1.00  0.00    -0.239 NA
HETATM   13  N   UNL     1       9.843   3.750   0.000  1.00  0.00    -0.230 NA
HETATM   14  C   UNL     1      11.142   3.000   0.000  1.00  0.00     0.074 A 
HETATM   15  C   UNL     1      11.142   1.500   0.000  1.00  0.00     0.073 A 
HETATM   16  C   UNL     1      12.441   0.750   0.000  1.00  0.00     0.047 A 
HETATM   17  C   UNL     1      12.441   3.750   0.000  1.00  0.00     0.047 A 
HETATM   18  C   UNL     1      13.740   3.000   0.000  1.00  0.00     0.007 A 
HETATM   19  C   UNL     1      13.740   1.500   0.000  1.00  0.00     0.007 A 
ENDROOT
BRANCH   2  20
HETATM   20  O   UNL     1       2.049   0.750   0.000  1.00  0.00    -0.315 OA
HETATM   21  C   UNL     1       0.750   1.500   0.000  1.00  0.00     0.183 C 
ENDBRANCH   2  20
TORSDOF 1
