REMARK  4 active torsions:
REMARK  status: ('A' for Active; 'I' for Inactive)
REMARK    1  A    between atoms: N_6  and  C_8 
REMARK    2  A    between atoms: C_8  and  S_9 
REMARK    3  A    between atoms: S_9  and  C_21 
REMARK    4  A    between atoms: C_10  and  C_21 
ROOT
HETATM    1  C   UNL     1       5.899  -6.120   0.000  1.00  0.00    -0.006 A 
HETATM    2  O   UNL     1       5.899  -3.522   0.000  1.00  0.00    -0.303 OA
HETATM    3  C   UNL     1       6.649  -2.223   0.000  1.00  0.00     0.299 A 
HETATM    4  C   UNL     1       6.649  -4.821   0.000  1.00  0.00     0.085 A 
HETATM    5  C   UNL     1       6.649  -7.419   0.000  1.00  0.00     0.059 A 
HETATM    6  O   UNL     1       8.149  -2.223   0.000  1.00  0.00    -0.322 OA
HETATM    7  C   UNL     1       8.149  -7.419   0.000  1.00  0.00     0.022 A 
HETATM    8  C   UNL     1       8.149  -4.821   0.000  1.00  0.00     0.012 A 
HETATM    9  C   UNL     1       8.899  -6.120   0.000  1.00  0.00     0.060 A 
HETATM   10  C   UNL     1       8.899  -3.522   0.000  1.00  0.00     0.170 A 
HETATM   11 CL   UNL     1       8.899  -8.718   0.000  1.00  0.00    -0.091 Cl
ENDROOT
BRANCH   1  12
HETATM   12  C   UNL     1       4.399  -6.120   0.000  1.00  0.00     0.089 C 
BRANCH  12  13
HETATM   13  S   UNL     1       3.886  -4.711   0.000  1.00  0.00    -0.082 SA
BRANCH  13  14
HETATM   14  C   UNL     1       2.409  -4.450   0.000  1.00  0.00     0.139 C 
HETATM   15  S   UNL     1       1.445  -5.599   0.000  1.00  0.00    -0.053 SA
BRANCH  14  16
HETATM   16  N   UNL     1       1.896  -3.041   0.000  1.00  0.00    -0.334 N 
HETATM   17  C   UNL     1       0.419  -2.780   0.000  1.00  0.00     0.114 A 
HETATM   18  C   UNL     1      -0.094  -1.371   0.000  1.00  0.00     0.082 A 
HETATM   19  S   UNL     1       0.870  -0.222   0.000  1.00  0.00    -0.136 SA
HETATM   20  C   UNL     1       2.347  -0.482   0.000  1.00  0.00     0.082 A 
HETATM   21  C   UNL     1       2.860  -1.892   0.000  1.00  0.00     0.114 A 
ENDBRANCH  14  16
ENDBRANCH  13  14
ENDBRANCH  12  13
ENDBRANCH   1  12
TORSDOF 4
