REMARK  5 active torsions:
REMARK  status: ('A' for Active; 'I' for Inactive)
REMARK    1  A    between atoms: N_4  and  C_11 
REMARK    2  A    between atoms: C_7  and  C_21 
REMARK    3  A    between atoms: C_16  and  O_18 
REMARK    4  A    between atoms: O_18  and  C_19 
REMARK    5  A    between atoms: C_19  and  C_21 
ROOT
HETATM    1  O   UNL     1       8.544   6.750   0.000  1.00  0.00    -0.170 OA
HETATM    2  O   UNL     1       8.544   0.750   0.000  1.00  0.00    -0.174 OA
HETATM    3  N   UNL     1       9.843   3.000   0.000  1.00  0.00    -0.271 N 
HETATM    4  N   UNL     1       9.843   4.500   0.000  1.00  0.00    -0.236 N 
HETATM    5  H   UNL     1      11.142   2.250   0.000  1.00  0.00     0.189 HD
HETATM    6  C   UNL     1       8.544   5.250   0.000  1.00  0.00     0.204 A 
HETATM    7  C   UNL     1       7.245   4.500   0.000  1.00  0.00     0.013 A 
HETATM    8  C   UNL     1       7.245   3.000   0.000  1.00  0.00     0.100 A 
HETATM    9  C   UNL     1       8.544   2.250   0.000  1.00  0.00     0.186 A 
ENDROOT
BRANCH   4  10
HETATM   10  C   UNL     1      11.142   5.250   0.000  1.00  0.00     0.038 A 
HETATM   11  C   UNL     1      11.142   6.750   0.000  1.00  0.00     0.041 A 
HETATM   12  C   UNL     1      12.441   7.500   0.000  1.00  0.00     0.006 A 
HETATM   13  C   UNL     1      13.740   6.750   0.000  1.00  0.00     0.001 A 
HETATM   14  C   UNL     1      13.740   5.250   0.000  1.00  0.00     0.006 A 
HETATM   15  C   UNL     1      12.441   4.500   0.000  1.00  0.00     0.041 A 
ENDBRANCH   4  10
BRANCH   7  16
HETATM   16  C   UNL     1       5.946   5.250   0.000  1.00  0.00     0.091 C 
BRANCH  16  17
HETATM   17  C   UNL     1       4.647   4.500   0.000  1.00  0.00     0.273 C 
HETATM   18  O   UNL     1       4.647   3.000   0.000  1.00  0.00    -0.190 OA
BRANCH  17  19
HETATM   19  O   UNL     1       3.348   5.250   0.000  1.00  0.00    -0.329 OA
BRANCH  19  20
HETATM   20  C   UNL     1       2.049   4.500   0.000  1.00  0.00     0.145 C 
HETATM   21  C   UNL     1       0.750   5.250   0.000  1.00  0.00     0.035 C 
ENDBRANCH  19  20
ENDBRANCH  17  19
ENDBRANCH  16  17
ENDBRANCH   7  16
TORSDOF 5
