REMARK  2 active torsions:
REMARK  status: ('A' for Active; 'I' for Inactive)
REMARK    1  A    between atoms: C_5  and  N_26 
REMARK       I    between atoms: C_7  and  N_17 
REMARK       I    between atoms: C_7  and  N_26 
REMARK    2  A    between atoms: C_9  and  N_11 
ROOT
HETATM    1  C   UNL     1     -11.142  -3.750   0.000  1.00  0.00     0.063 A 
HETATM    2  C   UNL     1     -11.142  -5.250   0.000  1.00  0.00     0.000 A 
HETATM    3  C   UNL     1      -9.843  -6.000   0.000  1.00  0.00     0.032 A 
HETATM    4  C   UNL     1      -8.544  -5.250   0.000  1.00  0.00     0.046 A 
HETATM    5  C   UNL     1      -8.544  -3.750   0.000  1.00  0.00     0.047 A 
HETATM    6  C   UNL     1      -9.843  -3.000   0.000  1.00  0.00     0.087 A 
HETATM    7  C   UNL     1     -13.740  -3.750   0.000  1.00  0.00     0.247 A 
HETATM    8  O   UNL     1     -13.740  -5.250   0.000  1.00  0.00    -0.297 OA
HETATM    9  C   UNL     1     -12.441  -6.000   0.000  1.00  0.00     0.175 A 
HETATM   10  N   UNL     1     -12.441  -3.000   0.000  1.00  0.00    -0.212 NA
ENDROOT
BRANCH   5  11
HETATM   11  N   UNL     1      -7.245  -3.000   0.000  1.00  0.00    -0.213 NA
HETATM   12  C   UNL     1      -5.946  -3.750   0.000  1.00  0.00     0.277 C 
HETATM   13  O   UNL     1      -5.946  -5.250   0.000  1.00  0.00    -0.149 OA
HETATM   14  N   UNL     1      -4.647  -3.000   0.000  1.00  0.00    -0.309 N 
HETATM   15  C   UNL     1      -3.348  -3.750   0.000  1.00  0.00     0.129 A 
HETATM   16  C   UNL     1      -4.647  -1.500   0.000  1.00  0.00     0.129 A 
HETATM   17  C   UNL     1      -2.049  -3.000   0.000  1.00  0.00     0.122 A 
HETATM   18  N   UNL     1      -2.049  -1.500   0.000  1.00  0.00    -0.364 N 
HETATM   19  C   UNL     1      -3.348  -0.750   0.000  1.00  0.00     0.122 A 
HETATM   20  C   UNL     1      -0.750  -0.750   0.000  1.00  0.00     0.121 C 
ENDBRANCH   5  11
BRANCH   7  21
HETATM   21  N   UNL     1     -15.039  -3.000   0.000  1.00  0.00    -0.310 N 
HETATM   22  C   UNL     1     -15.039  -1.500   0.000  1.00  0.00     0.129 A 
HETATM   23  C   UNL     1     -16.338  -0.750   0.000  1.00  0.00     0.122 A 
HETATM   24  N   UNL     1     -17.637  -1.500   0.000  1.00  0.00    -0.364 N 
HETATM   25  C   UNL     1     -17.637  -3.000   0.000  1.00  0.00     0.122 A 
HETATM   26  C   UNL     1     -18.936  -0.750   0.000  1.00  0.00     0.121 C 
HETATM   27  C   UNL     1     -16.338  -3.750   0.000  1.00  0.00     0.129 A 
ENDBRANCH   7  21
TORSDOF 2
