REMARK  3 active torsions:
REMARK  status: ('A' for Active; 'I' for Inactive)
REMARK    1  A    between atoms: C_7  and  N_8 
REMARK    2  A    between atoms: C_11  and  C_12 
REMARK    3  A    between atoms: C_16  and  N_18 
ROOT
HETATM    1  C   UNL     1       0.750   5.397   0.000  1.00  0.00     0.131 A 
HETATM    2  C   UNL     1       0.750   3.897   0.000  1.00  0.00     0.051 A 
HETATM    3  N   UNL     1       2.049   6.147   0.000  1.00  0.00    -0.238 NA
HETATM    4  C   UNL     1       2.049   3.147   0.000  1.00  0.00     0.113 A 
HETATM    5  C   UNL     1       3.348   5.397   0.000  1.00  0.00     0.230 A 
HETATM    6  N   UNL     1       3.348   3.897   0.000  1.00  0.00    -0.280 N 
HETATM    7  C   UNL     1       4.775   3.434   0.000  1.00  0.00     0.193 A 
HETATM    8  N   UNL     1       4.775   5.861   0.000  1.00  0.00    -0.209 NA
HETATM    9  C   UNL     1       5.656   4.647   0.000  1.00  0.00     0.113 A 
ENDROOT
BRANCH   9  10
HETATM   10  C   UNL     1       7.156   4.647   0.000  1.00  0.00    -0.018 A 
HETATM   11  C   UNL     1       7.906   5.946   0.000  1.00  0.00     0.024 A 
HETATM   12  C   UNL     1       9.406   5.946   0.000  1.00  0.00     0.011 A 
HETATM   13  C   UNL     1      10.156   4.647   0.000  1.00  0.00     0.046 A 
HETATM   14  C   UNL     1       9.406   3.348   0.000  1.00  0.00     0.086 A 
HETATM   15  C   UNL     1       7.906   3.348   0.000  1.00  0.00     0.069 A 
BRANCH  14  16
HETATM   16  N   UNL     1      10.156   2.049   0.000  1.00  0.00    -0.122 N 
HETATM   17  O   UNL     1      11.656   2.049   0.000  1.00  0.00    -0.532 OA
HETATM   18  O   UNL     1       9.406   0.750   0.000  1.00  0.00    -0.532 OA
ENDBRANCH  14  16
ENDBRANCH   9  10
BRANCH   7  19
HETATM   19  N   UNL     1       5.238   2.007   0.000  1.00  0.00    -0.077 NA
HETATM   20  O   UNL     1       6.705   1.695   0.000  1.00  0.00    -0.059 OA
ENDBRANCH   7  19
TORSDOF 3
