REMARK  1 active torsions:
REMARK  status: ('A' for Active; 'I' for Inactive)
REMARK    1  A    between atoms: C_18  and  N_20 
ROOT
HETATM    1  C   UNL     1      -8.718  -7.399   0.000  1.00  0.00     0.007 A 
HETATM    2  C   UNL     1      -8.718  -8.900   0.000  1.00  0.00     0.006 A 
HETATM    3  C   UNL     1      -7.419  -6.649   0.000  1.00  0.00     0.044 A 
HETATM    4  C   UNL     1      -7.419  -9.650   0.000  1.00  0.00     0.034 A 
HETATM    5  C   UNL     1      -6.120  -7.399   0.000  1.00  0.00     0.036 A 
HETATM    6  C   UNL     1      -6.120  -8.899   0.000  1.00  0.00     0.020 A 
HETATM    7  N   UNL     1      -4.821  -6.649   0.000  1.00  0.00    -0.355 N 
HETATM    8  S   UNL     1      -4.821  -9.649   0.000  1.00  0.00    -0.068 SA
HETATM    9  H   UNL     1      -4.821  -5.149   0.000  1.00  0.00     0.166 HD
HETATM   10  C   UNL     1      -3.522  -7.399   0.000  1.00  0.00     0.081 A 
HETATM   11  C   UNL     1      -3.522  -8.899   0.000  1.00  0.00     0.153 A 
HETATM   12  C   UNL     1      -2.223  -6.649   0.000  1.00  0.00     0.022 A 
HETATM   13  N   UNL     1      -2.223  -9.649   0.000  1.00  0.00    -0.119 NA
HETATM   14  C   UNL     1      -0.924  -7.399   0.000  1.00  0.00     0.101 A 
HETATM   15  C   UNL     1      -2.223  -5.149   0.000  1.00  0.00     0.075 A 
HETATM   16  O   UNL     1      -0.924  -8.899   0.000  1.00  0.00    -0.215 OA
HETATM   17  C   UNL     1       0.375  -6.649   0.000  1.00  0.00     0.060 A 
HETATM   18  C   UNL     1      -0.924  -4.399   0.000  1.00  0.00     0.087 A 
HETATM   19  C   UNL     1       0.375  -5.149   0.000  1.00  0.00     0.053 A 
ENDROOT
BRANCH  18  20
HETATM   20  N   UNL     1      -0.924  -2.900   0.000  1.00  0.00    -0.122 N 
HETATM   21  O   UNL     1       0.375  -2.150   0.000  1.00  0.00    -0.532 OA
HETATM   22  O   UNL     1      -2.223  -2.150   0.000  1.00  0.00    -0.532 OA
ENDBRANCH  18  20
TORSDOF 1
