REMARK  0 active torsions:
REMARK  status: ('A' for Active; 'I' for Inactive)
ROOT
HETATM    1  O   UNL     1      -5.691  -2.697   0.000  1.00  0.00    -0.176 OA
HETATM    2  N   UNL     1      -3.093  -2.704   0.000  1.00  0.00    -0.316 N 
HETATM    3  C   UNL     1       3.545   2.240   0.000  1.00  0.00     0.098 A 
HETATM    4  C   UNL     1       2.117   1.780   0.000  1.00  0.00     0.063 A 
HETATM    5  C   UNL     1       4.423   1.023   0.000  1.00  0.00     0.027 A 
HETATM    6  C   UNL     1       0.820   2.534   0.000  1.00  0.00    -0.022 A 
HETATM    7  C   UNL     1      -0.481   1.788   0.000  1.00  0.00    -0.056 A 
HETATM    8  C   UNL     1       3.538  -0.188   0.000  1.00  0.00    -0.003 A 
HETATM    9  C   UNL     1       2.112   0.280   0.000  1.00  0.00     0.021 A 
HETATM   10  C   UNL     1      -0.486   0.288   0.000  1.00  0.00     0.043 A 
HETATM   11  C   UNL     1       0.811  -0.466   0.000  1.00  0.00     0.013 A 
HETATM   12  C   UNL     1      -1.787  -0.458   0.000  1.00  0.00     0.032 A 
HETATM   13  C   UNL     1      -3.084   0.296   0.000  1.00  0.00     0.017 A 
HETATM   14  C   UNL     1      -4.385  -0.451   0.000  1.00  0.00     0.073 A 
HETATM   15  C   UNL     1       0.806  -1.966   0.000  1.00  0.00    -0.000 A 
HETATM   16  C   UNL     1      -1.792  -1.958   0.000  1.00  0.00     0.016 A 
HETATM   17  C   UNL     1      -4.390  -1.950   0.000  1.00  0.00     0.171 A 
HETATM   18  C   UNL     1      -0.495  -2.712   0.000  1.00  0.00     0.039 A 
HETATM   19  C   UNL     1      -3.097  -4.204   0.000  1.00  0.00     0.132 C 
HETATM   20  C   UNL     1      -1.783   1.042   0.000  1.00  0.00     0.018 A 
HETATM   21  C   UNL     1       2.017   3.277   0.000  1.00  0.00     0.138 A 
HETATM   22  O   UNL     1       2.939   3.612   0.000  1.00  0.00    -0.357 OA
HETATM   23  C   UNL     1       4.846   2.986   0.000  1.00  0.00     0.030 C 
ENDROOT
TORSDOF 0
