REMARK  6 active torsions:
REMARK  status: ('A' for Active; 'I' for Inactive)
REMARK    1  A    between atoms: N_6  and  C_7 
REMARK    2  A    between atoms: N_10  and  C_21 
REMARK    3  A    between atoms: C_12  and  C_21 
REMARK       I    between atoms: C_12  and  N_22 
REMARK    4  A    between atoms: N_14  and  N_22 
REMARK    5  A    between atoms: N_14  and  C_23 
REMARK    6  A    between atoms: C_15  and  C_23 
ROOT
HETATM    1  C   UNL     1       2.603  -4.814   0.000  1.00  0.00     0.273 C 
HETATM    2  O   UNL     1       4.102  -4.835   0.000  1.00  0.00    -0.200 OA
HETATM    3  N   UNL     1       1.871  -3.505   0.000  1.00  0.00    -0.070 NA
ENDROOT
BRANCH   1   4
HETATM    4  C   UNL     1       1.834  -6.103   0.000  1.00  0.00     0.198 C 
BRANCH   4   5
HETATM    5  N   UNL     1       2.782  -7.265   0.000  1.00  0.00    -0.169 N 
HETATM    6  N   UNL     1       2.399  -8.715   0.000  1.00  0.00    -0.117 NA
HETATM    7  C   UNL     1       3.660  -9.528   0.000  1.00  0.00     0.262 A 
HETATM    8  N   UNL     1       4.822  -8.580   0.000  1.00  0.00    -0.118 NA
HETATM    9  N   UNL     1       4.280  -7.182   0.000  1.00  0.00     0.027 NA
BRANCH   7  10
HETATM   10  N   UNL     1       3.743 -11.026   0.000  1.00  0.00    -0.317 N 
HETATM   11  C   UNL     1       2.488 -11.847   0.000  1.00  0.00     0.104 A 
HETATM   12  C   UNL     1       2.572 -13.345   0.000  1.00  0.00     0.024 A 
HETATM   13  C   UNL     1       3.911 -14.021   0.000  1.00  0.00     0.004 A 
HETATM   14  C   UNL     1       5.166 -13.200   0.000  1.00  0.00     0.024 A 
HETATM   15  C   UNL     1       5.082 -11.702   0.000  1.00  0.00     0.104 A 
ENDBRANCH   7  10
ENDBRANCH   4   5
ENDBRANCH   1   4
BRANCH   3  16
HETATM   16  N   UNL     1       2.851  -2.369   0.000  1.00  0.00    -0.199 NA
BRANCH  16  17
HETATM   17  C   UNL     1       4.324  -2.651   0.000  1.00  0.00     0.166 C 
BRANCH  17  18
HETATM   18  C   UNL     1       5.305  -1.515   0.000  1.00  0.00     0.003 A 
HETATM   19  C   UNL     1       4.811  -0.099   0.000  1.00  0.00     0.102 A 
HETATM   20  C   UNL     1       5.792   1.037   0.000  1.00  0.00     0.054 A 
HETATM   21  O   UNL     1       3.338   0.183   0.000  1.00  0.00    -0.195 OA
HETATM   22  C   UNL     1       7.265   0.756   0.000  1.00  0.00     0.007 A 
HETATM   23  C   UNL     1       7.758  -0.661   0.000  1.00  0.00     0.005 A 
HETATM   24  C   UNL     1       6.778  -1.796   0.000  1.00  0.00     0.026 A 
ENDBRANCH  17  18
ENDBRANCH  16  17
ENDBRANCH   3  16
TORSDOF 6
