REMARK  3 active torsions:
REMARK  status: ('A' for Active; 'I' for Inactive)
REMARK    1  A    between atoms: C_2  and  N_7 
REMARK    2  A    between atoms: C_3  and  S_11 
REMARK    3  A    between atoms: S_11  and  N_14 
ROOT
HETATM    1  C   UNL     1      -5.946  -3.000   0.000  1.00  0.00     0.068 A 
HETATM    2  C   UNL     1      -7.245  -3.750   0.000  1.00  0.00     0.097 A 
HETATM    3  C   UNL     1      -4.647  -3.750   0.000  1.00  0.00     0.134 A 
HETATM    4  C   UNL     1      -4.647  -5.250   0.000  1.00  0.00     0.023 A 
HETATM    5  C   UNL     1      -7.245  -5.250   0.000  1.00  0.00    -0.026 A 
HETATM    6  C   UNL     1      -5.946  -6.000   0.000  1.00  0.00     0.025 A 
HETATM    7  C   UNL     1      -8.544  -6.000   0.000  1.00  0.00     0.028 C 
ENDROOT
BRANCH   3   8
HETATM    8  S   UNL     1      -3.348  -3.000   0.000  1.00  0.00     0.243 S 
HETATM    9  O   UNL     1      -4.098  -1.701   0.000  1.00  0.00    -0.205 OA
HETATM   10  O   UNL     1      -2.598  -4.299   0.000  1.00  0.00    -0.205 OA
BRANCH   8  11
HETATM   11  N   UNL     1      -2.049  -2.250   0.000  1.00  0.00    -0.274 N 
HETATM   12  C   UNL     1      -0.750  -3.000   0.000  1.00  0.00     0.138 C 
HETATM   13  C   UNL     1      -2.049  -0.750   0.000  1.00  0.00     0.138 C 
ENDBRANCH   8  11
ENDBRANCH   3   8
BRANCH   2  14
HETATM   14  N   UNL     1      -8.544  -3.000   0.000  1.00  0.00    -0.119 N 
HETATM   15  O   UNL     1      -9.843  -3.750   0.000  1.00  0.00    -0.532 OA
HETATM   16  O   UNL     1      -8.544  -1.500   0.000  1.00  0.00    -0.532 OA
ENDBRANCH   2  14
TORSDOF 3
