REMARK  2 active torsions:
REMARK  status: ('A' for Active; 'I' for Inactive)
REMARK    1  A    between atoms: C4*_4  and  C5*_18 
REMARK    2  A    between atoms: C1*_10  and  N_12 
ROOT
HETATM    1  C   UNL     1       2.454  -0.918   0.000  1.00  0.00     0.153 A 
HETATM    2  C   UNL     1       3.335  -2.132   0.000  1.00  0.00     0.085 A 
HETATM    3  N   UNL     1       3.335   0.295   0.000  1.00  0.00    -0.115 NA
HETATM    4  C   UNL     1       4.762  -1.668   0.000  1.00  0.00     0.143 A 
HETATM    5  N   UNL     1       4.762  -0.168   0.000  1.00  0.00    -0.259 N 
HETATM    6  C   UNL     1       6.189   0.295   0.000  1.00  0.00     0.147 A 
HETATM    7  N   UNL     1       6.189  -2.132   0.000  1.00  0.00    -0.290 N 
HETATM    8  C   UNL     1       7.070  -0.918   0.000  1.00  0.00     0.135 A 
HETATM    9  C   UNL     1       2.872  -3.558   0.000  1.00  0.00     0.021 C 
HETATM   10  N   UNL     1       2.408  -4.985   0.000  1.00  0.00    -0.096 N 
ENDROOT
BRANCH   7  11
HETATM   11  C1* UNL     1       6.652  -3.558   0.000  1.00  0.00     0.193 A 
HETATM   12  O4* UNL     1       5.770  -4.772   0.000  1.00  0.00    -0.288 OA
HETATM   13  C4* UNL     1       6.652  -5.986   0.000  1.00  0.00     0.140 A 
HETATM   14  C3* UNL     1       8.079  -5.522   0.000  1.00  0.00     0.181 A 
HETATM   15  C2* UNL     1       8.079  -4.022   0.000  1.00  0.00     0.197 A 
HETATM   16  O3* UNL     1       9.292  -6.404   0.000  1.00  0.00    -0.186 OA
HETATM   17  O2* UNL     1       9.292  -3.140   0.000  1.00  0.00    -0.184 OA
BRANCH  13  18
HETATM   18  C5* UNL     1       6.189  -7.412   0.000  1.00  0.00     0.235 C 
HETATM   19  O5* UNL     1       7.192  -8.527   0.000  1.00  0.00    -0.213 OA
ENDBRANCH  13  18
ENDBRANCH   7  11
TORSDOF 2
