REMARK  0 active torsions:
REMARK  status: ('A' for Active; 'I' for Inactive)
ROOT
HETATM    1  N   UNL     1       0.750   2.799   0.000  1.00  0.00    -0.246 NA
HETATM    2  C   UNL     1       0.750   1.299   0.000  1.00  0.00     0.152 A 
HETATM    3  S   UNL     1       2.640   4.689   0.000  1.00  0.00     0.007 SA
HETATM    4  C   UNL     1       2.177   3.263   0.000  1.00  0.00     0.181 A 
HETATM    5  C   UNL     1       2.177   0.836   0.000  1.00  0.00     0.134 A 
HETATM    6  N   UNL     1       3.058   2.049   0.000  1.00  0.00    -0.309 N 
HETATM    7  C   UNL     1       4.558   2.049   0.000  1.00  0.00     0.045 A 
HETATM    8 CL   UNL     1       4.558   4.647   0.000  1.00  0.00    -0.104 Cl
HETATM    9  C   UNL     1       5.308   0.750   0.000  1.00  0.00     0.044 A 
HETATM   10  C   UNL     1       5.308   3.348   0.000  1.00  0.00     0.043 A 
HETATM   11  C   UNL     1       6.808   0.750   0.000  1.00  0.00     0.007 A 
HETATM   12  C   UNL     1       6.808   3.348   0.000  1.00  0.00     0.039 A 
HETATM   13  C   UNL     1       7.558   2.049   0.000  1.00  0.00     0.006 A 
ENDROOT
TORSDOF 0
