REMARK  1 active torsions:
REMARK  status: ('A' for Active; 'I' for Inactive)
REMARK    1  A    between atoms: C_15  and  N_21 
ROOT
HETATM    1  C   UNL     1      -8.149   7.419   0.000  1.00  0.00     0.076 A 
HETATM    2  C   UNL     1      -5.899   8.718   0.000  1.00  0.00     0.022 A 
HETATM    3  C   UNL     1      -8.899   6.120   0.000  1.00  0.00     0.116 A 
HETATM    4  C   UNL     1      -6.649   7.419   0.000  1.00  0.00    -0.042 A 
HETATM    5  C   UNL     1      -4.399   8.718   0.000  1.00  0.00     0.005 A 
HETATM    6  C   UNL     1      -4.399   3.522   0.000  1.00  0.00     0.034 A 
HETATM    7  C   UNL     1      -5.899   3.522   0.000  1.00  0.00    -0.008 A 
HETATM    8  C   UNL     1      -8.149   4.821   0.000  1.00  0.00     0.065 A 
HETATM    9  C   UNL     1      -5.899   6.120   0.000  1.00  0.00    -0.030 A 
HETATM   10  C   UNL     1      -3.650   7.419   0.000  1.00  0.00     0.005 A 
HETATM   11  C   UNL     1      -3.650   2.223   0.000  1.00  0.00     0.051 A 
HETATM   12  C   UNL     1      -6.649   2.223   0.000  1.00  0.00     0.063 A 
HETATM   13  C   UNL     1      -6.649   4.821   0.000  1.00  0.00    -0.002 A 
HETATM   14  C   UNL     1      -4.399   6.120   0.000  1.00  0.00     0.026 A 
HETATM   15  C   UNL     1      -4.399   0.924   0.000  1.00  0.00     0.088 A 
HETATM   16  C   UNL     1      -5.899   0.924   0.000  1.00  0.00     0.091 A 
HETATM   17  C   UNL     1      -8.899   3.522   0.000  1.00  0.00     0.214 A 
HETATM   18  O   UNL     1     -10.399   3.522   0.000  1.00  0.00    -0.169 OA
HETATM   19  O   UNL     1     -10.399   6.120   0.000  1.00  0.00    -0.194 OA
HETATM   20  N   UNL     1      -8.149   2.223   0.000  1.00  0.00    -0.224 NA
ENDROOT
BRANCH  15  21
HETATM   21  N   UNL     1      -3.650  -0.375   0.000  1.00  0.00    -0.122 N 
HETATM   22  O   UNL     1      -2.150  -0.375   0.000  1.00  0.00    -0.532 OA
HETATM   23  O   UNL     1      -4.399  -1.674   0.000  1.00  0.00    -0.532 OA
ENDBRANCH  15  21
TORSDOF 1
