REMARK  3 active torsions:
REMARK  status: ('A' for Active; 'I' for Inactive)
REMARK    1  A    between atoms: N_1  and  C_18 
REMARK    2  A    between atoms: C_4  and  C_6 
REMARK       I    between atoms: C_6  and  N_25 
REMARK    3  A    between atoms: C_9  and  N_25 
ROOT
HETATM    1  C   UNL     1       4.767   7.654   0.000  1.00  0.00     0.233 C 
HETATM    2  O   UNL     1       4.610   9.146   0.000  1.00  0.00    -0.167 OA
HETATM    3  N   UNL     1       6.138   7.044   0.000  1.00  0.00    -0.227 NA
ENDROOT
BRANCH   1   4
HETATM    4  C   UNL     1       3.554   6.772   0.000  1.00  0.00     0.162 A 
HETATM    5  N   UNL     1       2.127   7.236   0.000  1.00  0.00    -0.144 NA
HETATM    6  N   UNL     1       1.245   6.022   0.000  1.00  0.00    -0.156 N 
HETATM    7  N   UNL     1       2.127   4.809   0.000  1.00  0.00    -0.151 NA
HETATM    8  C   UNL     1       3.554   5.272   0.000  1.00  0.00     0.104 A 
HETATM    9  C   UNL     1       4.767   4.391   0.000  1.00  0.00     0.056 C 
BRANCH   6  10
HETATM   10  C   UNL     1      -0.255   6.022   0.000  1.00  0.00     0.058 A 
HETATM   11  C   UNL     1      -1.005   4.723   0.000  1.00  0.00     0.043 A 
HETATM   12  C   UNL     1      -2.505   4.723   0.000  1.00  0.00     0.006 A 
HETATM   13  C   UNL     1      -3.255   6.022   0.000  1.00  0.00     0.001 A 
HETATM   14  C   UNL     1      -2.505   7.321   0.000  1.00  0.00     0.006 A 
HETATM   15  C   UNL     1      -1.005   7.321   0.000  1.00  0.00     0.043 A 
ENDBRANCH   6  10
ENDBRANCH   1   4
BRANCH   3  16
HETATM   16  C   UNL     1       7.351   7.926   0.000  1.00  0.00     0.044 A 
HETATM   17  C   UNL     1       8.721   7.315   0.000  1.00  0.00     0.048 A 
HETATM   18  C   UNL     1       9.935   8.197   0.000  1.00  0.00     0.050 A 
HETATM   19  C   UNL     1       9.778   9.689   0.000  1.00  0.00     0.040 A 
HETATM   20  C   UNL     1       8.408  10.299   0.000  1.00  0.00    -0.007 A 
HETATM   21  N   UNL     1      10.782  10.804   0.000  1.00  0.00    -0.306 N 
HETATM   22  C   UNL     1       7.194   9.417   0.000  1.00  0.00     0.066 A 
HETATM   23  C   UNL     1       8.565  11.791   0.000  1.00  0.00     0.138 A 
HETATM   24  N   UNL     1      10.032  12.103   0.000  1.00  0.00    -0.120 NA
HETATM   25  H   UNL     1      12.274  10.647   0.000  1.00  0.00     0.182 HD
ENDBRANCH   3  16
TORSDOF 3
