REMARK  1 active torsions:
REMARK  status: ('A' for Active; 'I' for Inactive)
REMARK    1  A    between atoms: C_10  and  C_19 
ROOT
HETATM    1  C   UNL     1      -7.520   7.024   0.000  1.00  0.00     0.053 A 
HETATM    2  C   UNL     1      -8.819   7.774   0.000  1.00  0.00    -0.047 A 
HETATM    3  C   UNL     1      -7.520   5.524   0.000  1.00  0.00     0.044 A 
HETATM    4  C   UNL     1      -8.819   9.274   0.000  1.00  0.00     0.022 A 
HETATM    5  C   UNL     1     -10.118  10.024   0.000  1.00  0.00     0.005 A 
HETATM    6  C   UNL     1      -8.819   4.774   0.000  1.00  0.00     0.112 A 
HETATM    7  C   UNL     1     -10.118   7.024   0.000  1.00  0.00    -0.045 A 
HETATM    8  C   UNL     1     -11.417   9.274   0.000  1.00  0.00     0.005 A 
HETATM    9  C   UNL     1     -10.118   5.524   0.000  1.00  0.00     0.075 A 
HETATM   10  C   UNL     1     -11.417   7.774   0.000  1.00  0.00     0.022 A 
HETATM   11  O   UNL     1      -8.819   3.275   0.000  1.00  0.00    -0.195 OA
ENDROOT
BRANCH   3  12
HETATM   12  C   UNL     1      -6.221   4.774   0.000  1.00  0.00     0.176 A 
HETATM   13  O   UNL     1      -4.922   5.524   0.000  1.00  0.00    -0.310 OA
HETATM   14  C   UNL     1      -3.623   4.774   0.000  1.00  0.00     0.174 A 
HETATM   15  C   UNL     1      -3.623   3.275   0.000  1.00  0.00     0.000 A 
HETATM   16  C   UNL     1      -4.922   2.525   0.000  1.00  0.00     0.060 A 
HETATM   17  C   UNL     1      -2.324   2.525   0.000  1.00  0.00     0.031 A 
HETATM   18  C   UNL     1      -4.922   1.024   0.000  1.00  0.00     0.079 A 
HETATM   19  N   UNL     1      -6.221   3.275   0.000  1.00  0.00    -0.227 NA
HETATM   20  C   UNL     1      -3.623   0.275   0.000  1.00  0.00     0.020 A 
HETATM   21 CL   UNL     1      -3.623  -1.226   0.000  1.00  0.00    -0.091 Cl
HETATM   22  C   UNL     1      -2.324   1.024   0.000  1.00  0.00     0.038 A 
ENDBRANCH   3  12
TORSDOF 1
