REMARK  1 active torsions:
REMARK  status: ('A' for Active; 'I' for Inactive)
REMARK    1  A    between atoms: C_1  and  C_6 
ROOT
HETATM    1  C   UNL     1      -4.272  -3.390   0.000  1.00  0.00     0.121 A 
HETATM    2  C   UNL     1      -3.390  -2.177   0.000  1.00  0.00     0.181 A 
HETATM    3  O   UNL     1      -3.390  -4.604   0.000  1.00  0.00    -0.290 OA
HETATM    4  C   UNL     1      -1.964  -4.140   0.000  1.00  0.00     0.197 A 
HETATM    5  C   UNL     1      -1.964  -2.640   0.000  1.00  0.00     0.194 A 
HETATM    6  O   UNL     1      -3.854  -0.750   0.000  1.00  0.00    -0.186 OA
HETATM    7  N   UNL     1      -0.750  -5.022   0.000  1.00  0.00    -0.071 NA
HETATM    8  O   UNL     1      -0.750  -1.758   0.000  1.00  0.00    -0.185 OA
ENDROOT
BRANCH   1   9
HETATM    9  C   UNL     1      -5.772  -3.390   0.000  1.00  0.00    -0.019 A 
HETATM   10  C   UNL     1      -6.522  -4.689   0.000  1.00  0.00     0.024 A 
HETATM   11  C   UNL     1      -8.022  -4.689   0.000  1.00  0.00     0.004 A 
HETATM   12  C   UNL     1      -8.772  -3.390   0.000  1.00  0.00     0.001 A 
HETATM   13  C   UNL     1      -8.022  -2.091   0.000  1.00  0.00     0.004 A 
HETATM   14  C   UNL     1      -6.522  -2.091   0.000  1.00  0.00     0.024 A 
ENDBRANCH   1   9
TORSDOF 1
