REMARK  8 active torsions:
REMARK  status: ('A' for Active; 'I' for Inactive)
REMARK    1  A    between atoms: C_5  and  O_27 
REMARK    2  A    between atoms: C_12  and  O_21 
REMARK    3  A    between atoms: O_21  and  C_22 
REMARK    4  A    between atoms: C_22  and  C_23 
REMARK    5  A    between atoms: C_23  and  O_24 
REMARK    6  A    between atoms: O_24  and  C_25 
REMARK    7  A    between atoms: C_25  and  C_26 
REMARK    8  A    between atoms: C_26  and  O_27 
ROOT
HETATM    1  O   UNL     1      -8.069  -5.524   0.000  1.00  0.00    -0.349 OA
ENDROOT
BRANCH   1   2
HETATM    2  C   UNL     1      -8.069  -7.024   0.000  1.00  0.00     0.174 C 
BRANCH   2   3
HETATM    3  C   UNL     1      -9.368  -7.774   0.000  1.00  0.00     0.174 C 
BRANCH   3   4
HETATM    4  O   UNL     1      -9.368  -9.274   0.000  1.00  0.00    -0.354 OA
BRANCH   4   5
HETATM    5  C   UNL     1     -10.667 -10.024   0.000  1.00  0.00     0.120 A 
HETATM    6  C   UNL     1     -11.966  -9.274   0.000  1.00  0.00     0.051 A 
HETATM    7  C   UNL     1     -13.265 -10.025   0.000  1.00  0.00    -0.050 A 
HETATM    8  C   UNL     1     -13.265 -11.525   0.000  1.00  0.00    -0.052 A 
HETATM    9  C   UNL     1     -14.564  -9.275   0.000  1.00  0.00     0.021 A 
HETATM   10  C   UNL     1     -11.966 -12.275   0.000  1.00  0.00     0.024 A 
HETATM   11  C   UNL     1     -14.564 -12.275   0.000  1.00  0.00     0.021 A 
HETATM   12  C   UNL     1     -10.667 -11.524   0.000  1.00  0.00     0.034 A 
HETATM   13  C   UNL     1     -15.863 -11.525   0.000  1.00  0.00     0.005 A 
HETATM   14  C   UNL     1     -15.863 -10.025   0.000  1.00  0.00     0.005 A 
ENDBRANCH   4   5
ENDBRANCH   3   4
ENDBRANCH   2   3
ENDBRANCH   1   2
BRANCH   1  15
HETATM   15  C   UNL     1      -6.770  -4.774   0.000  1.00  0.00     0.174 C 
BRANCH  15  16
HETATM   16  C   UNL     1      -5.471  -5.524   0.000  1.00  0.00     0.174 C 
BRANCH  16  17
HETATM   17  O   UNL     1      -4.172  -4.774   0.000  1.00  0.00    -0.354 OA
BRANCH  17  18
HETATM   18  C   UNL     1      -2.873  -5.524   0.000  1.00  0.00     0.120 A 
HETATM   19  C   UNL     1      -1.574  -4.774   0.000  1.00  0.00     0.051 A 
HETATM   20  C   UNL     1      -0.275  -5.524   0.000  1.00  0.00    -0.050 A 
HETATM   21  C   UNL     1       1.024  -4.774   0.000  1.00  0.00     0.021 A 
HETATM   22  C   UNL     1      -0.275  -7.024   0.000  1.00  0.00    -0.052 A 
HETATM   23  C   UNL     1       2.324  -5.524   0.000  1.00  0.00     0.005 A 
HETATM   24  C   UNL     1       2.324  -7.024   0.000  1.00  0.00     0.005 A 
HETATM   25  C   UNL     1       1.024  -7.774   0.000  1.00  0.00     0.021 A 
HETATM   26  C   UNL     1      -1.573  -7.774   0.000  1.00  0.00     0.024 A 
HETATM   27  C   UNL     1      -2.873  -7.024   0.000  1.00  0.00     0.034 A 
ENDBRANCH  17  18
ENDBRANCH  16  17
ENDBRANCH  15  16
ENDBRANCH   1  15
TORSDOF 8
