REMARK  5 active torsions:
REMARK  status: ('A' for Active; 'I' for Inactive)
REMARK    1  A    between atoms: C_1  and  C_2 
REMARK    2  A    between atoms: C_5  and  O_17 
REMARK    3  A    between atoms: C_6  and  O_10 
REMARK    4  A    between atoms: O_10  and  C_11 
REMARK    5  A    between atoms: O_17  and  C_18 
ROOT
HETATM    1  C   UNL     1       3.000   4.647   0.000  1.00  0.00     0.162 A 
HETATM    2  N   UNL     1       3.750   3.348   0.000  1.00  0.00    -0.187 NA
HETATM    3  N   UNL     1       3.750   5.946   0.000  1.00  0.00    -0.187 NA
HETATM    4  C   UNL     1       5.250   3.348   0.000  1.00  0.00     0.275 A 
HETATM    5  C   UNL     1       5.250   5.946   0.000  1.00  0.00     0.275 A 
HETATM    6  N   UNL     1       6.000   4.647   0.000  1.00  0.00    -0.164 NA
ENDROOT
BRANCH   4   7
HETATM    7  O   UNL     1       6.000   2.049   0.000  1.00  0.00    -0.303 OA
BRANCH   7   8
HETATM    8  C   UNL     1       7.500   2.049   0.000  1.00  0.00     0.124 A 
HETATM    9  C   UNL     1       8.250   3.348   0.000  1.00  0.00     0.030 A 
HETATM   10  C   UNL     1       9.750   3.348   0.000  1.00  0.00     0.003 A 
HETATM   11  C   UNL     1      10.500   2.049   0.000  1.00  0.00     0.000 A 
HETATM   12  C   UNL     1       9.750   0.750   0.000  1.00  0.00     0.003 A 
HETATM   13  C   UNL     1       8.250   0.750   0.000  1.00  0.00     0.030 A 
ENDBRANCH   7   8
ENDBRANCH   4   7
BRANCH   1  14
HETATM   14  C   UNL     1       1.500   4.647   0.000  1.00  0.00    -0.008 C 
HETATM   15  C   UNL     1       0.750   5.946   0.000  1.00  0.00     0.030 C 
HETATM   16  C   UNL     1       0.750   3.348   0.000  1.00  0.00     0.030 C 
ENDBRANCH   1  14
BRANCH   5  17
HETATM   17  O   UNL     1       6.000   7.245   0.000  1.00  0.00    -0.303 OA
BRANCH  17  18
HETATM   18  C   UNL     1       7.500   7.245   0.000  1.00  0.00     0.124 A 
HETATM   19  C   UNL     1       8.250   8.544   0.000  1.00  0.00     0.030 A 
HETATM   20  C   UNL     1       9.750   8.544   0.000  1.00  0.00     0.003 A 
HETATM   21  C   UNL     1      10.500   7.245   0.000  1.00  0.00     0.000 A 
HETATM   22  C   UNL     1       9.750   5.946   0.000  1.00  0.00     0.003 A 
HETATM   23  C   UNL     1       8.250   5.946   0.000  1.00  0.00     0.030 A 
ENDBRANCH  17  18
ENDBRANCH   5  17
TORSDOF 5
