REMARK  3 active torsions:
REMARK  status: ('A' for Active; 'I' for Inactive)
REMARK    1  A    between atoms: C_7  and  N_12 
REMARK       I    between atoms: C_8  and  N_10 
REMARK       I    between atoms: C_8  and  N_12 
REMARK    2  A    between atoms: N_10  and  C_14 
REMARK    3  A    between atoms: C_14  and  C_15 
ROOT
HETATM    1  C   UNL     1       0.750   3.348   0.000  1.00  0.00     0.038 A 
HETATM    2 CL   UNL     1       0.750   5.946   0.000  1.00  0.00    -0.091 Cl
HETATM    3  C   UNL     1       1.500   4.647   0.000  1.00  0.00     0.020 A 
HETATM    4  C   UNL     1       1.500   2.049   0.000  1.00  0.00     0.029 A 
HETATM    5  C   UNL     1       3.000   4.647   0.000  1.00  0.00     0.079 A 
HETATM    6  C   UNL     1       3.000   2.049   0.000  1.00  0.00    -0.029 A 
HETATM    7  C   UNL     1       3.750   3.348   0.000  1.00  0.00     0.060 A 
HETATM    8  C   UNL     1       3.750   0.750   0.000  1.00  0.00     0.028 C 
ENDROOT
BRANCH   7   9
HETATM    9  N   UNL     1       5.250   3.348   0.000  1.00  0.00    -0.210 NA
HETATM   10  C   UNL     1       6.000   4.647   0.000  1.00  0.00     0.278 C 
HETATM   11  O   UNL     1       5.250   5.946   0.000  1.00  0.00    -0.149 OA
HETATM   12  N   UNL     1       7.500   4.647   0.000  1.00  0.00    -0.308 N 
HETATM   13  C   UNL     1       8.250   5.946   0.000  1.00  0.00     0.129 C 
BRANCH  12  14
HETATM   14  C   UNL     1       8.250   3.348   0.000  1.00  0.00     0.140 C 
BRANCH  14  15
HETATM   15  C   UNL     1       9.750   3.348   0.000  1.00  0.00     0.206 C 
HETATM   16  O   UNL     1      10.500   4.647   0.000  1.00  0.00    -0.219 OA
ENDBRANCH  14  15
ENDBRANCH  12  14
ENDBRANCH   7   9
TORSDOF 3
