REMARK  2 active torsions:
REMARK  status: ('A' for Active; 'I' for Inactive)
REMARK    1  A    between atoms: C_2  and  O_21 
REMARK    2  A    between atoms: C_5  and  C_7 
ROOT
HETATM    1  C   UNL     1       5.370   5.699   0.000  1.00  0.00     0.121 A 
HETATM    2  C   UNL     1       5.527   7.190   0.000  1.00  0.00     0.172 A 
HETATM    3  O   UNL     1       6.740   5.088   0.000  1.00  0.00    -0.287 OA
HETATM    4  C   UNL     1       7.744   6.203   0.000  1.00  0.00     0.200 A 
HETATM    5  C   UNL     1       6.994   7.502   0.000  1.00  0.00     0.126 A 
HETATM    6  N   UNL     1       9.244   6.203   0.000  1.00  0.00    -0.224 NA
HETATM    7  N   UNL     1       7.744   8.801   0.000  1.00  0.00    -0.351 N 
HETATM    8  H   UNL     1       6.994  10.100   0.000  1.00  0.00     0.166 HD
HETATM    9  C   UNL     1       9.994   7.502   0.000  1.00  0.00     0.077 A 
HETATM   10  C   UNL     1       9.244   8.801   0.000  1.00  0.00     0.052 A 
HETATM   11  C   UNL     1      11.494   7.502   0.000  1.00  0.00     0.068 A 
HETATM   12  C   UNL     1       9.994  10.100   0.000  1.00  0.00     0.066 A 
HETATM   13  C   UNL     1      11.494  10.100   0.000  1.00  0.00    -0.045 A 
HETATM   14  C   UNL     1      12.244   8.801   0.000  1.00  0.00    -0.045 A 
HETATM   15  O   UNL     1       4.412   8.194   0.000  1.00  0.00    -0.186 OA
HETATM   16  C   UNL     1      13.744   8.801   0.000  1.00  0.00     0.026 C 
HETATM   17  C   UNL     1      12.244  11.399   0.000  1.00  0.00     0.026 C 
ENDROOT
BRANCH   1  18
HETATM   18  C   UNL     1       4.071   4.949   0.000  1.00  0.00    -0.019 A 
HETATM   19  C   UNL     1       2.772   5.699   0.000  1.00  0.00     0.027 A 
HETATM   20  C   UNL     1       1.473   4.949   0.000  1.00  0.00     0.034 A 
HETATM   21  C   UNL     1       1.473   3.449   0.000  1.00  0.00     0.116 A 
HETATM   22  C   UNL     1       2.772   2.699   0.000  1.00  0.00     0.034 A 
HETATM   23  C   UNL     1       4.071   3.449   0.000  1.00  0.00     0.027 A 
BRANCH  21  24
HETATM   24  O   UNL     1       0.174   2.699   0.000  1.00  0.00    -0.354 OA
HETATM   25  C   UNL     1      -1.125   3.449   0.000  1.00  0.00     0.174 C 
ENDBRANCH  21  24
ENDBRANCH   1  18
TORSDOF 2
