REMARK  1 active torsions:
REMARK  status: ('A' for Active; 'I' for Inactive)
REMARK    1  A    between atoms: C_20  and  N_24 
ROOT
HETATM    1  C   UNL     1       1.500   5.049   0.000  1.00  0.00     0.005 A 
HETATM    2  C   UNL     1       0.750   3.750   0.000  1.00  0.00     0.007 A 
HETATM    3  C   UNL     1       3.000   5.049   0.000  1.00  0.00     0.028 A 
HETATM    4  C   UNL     1       1.500   2.451   0.000  1.00  0.00     0.051 A 
HETATM    5  C   UNL     1       3.750   3.750   0.000  1.00  0.00    -0.001 A 
HETATM    6  C   UNL     1       3.000   2.451   0.000  1.00  0.00     0.074 A 
HETATM    7  C   UNL     1       5.250   3.750   0.000  1.00  0.00     0.026 A 
HETATM    8  O   UNL     1       6.132   2.537   0.000  1.00  0.00     0.000 OA
HETATM    9  C   UNL     1       6.132   4.963   0.000  1.00  0.00     0.148 A 
HETATM   10  C   UNL     1       7.558   3.000   0.000  1.00  0.00     0.118 A 
HETATM   11  C   UNL     1       7.558   4.500   0.000  1.00  0.00     0.102 A 
HETATM   12  H   UNL     1       8.857   6.750   0.000  1.00  0.00     0.166 HD
HETATM   13  N   UNL     1       8.857   2.250   0.000  1.00  0.00    -0.245 NA
HETATM   14  N   UNL     1       8.857   5.250   0.000  1.00  0.00    -0.353 N 
HETATM   15  C   UNL     1      10.156   3.000   0.000  1.00  0.00     0.076 A 
HETATM   16  C   UNL     1      10.156   4.500   0.000  1.00  0.00     0.048 A 
HETATM   17  C   UNL     1      11.455   2.250   0.000  1.00  0.00     0.093 A 
HETATM   18  C   UNL     1      11.455   5.250   0.000  1.00  0.00     0.051 A 
HETATM   19  C   UNL     1      12.754   4.500   0.000  1.00  0.00     0.052 A 
HETATM   20  C   UNL     1      12.754   3.000   0.000  1.00  0.00     0.088 A 
HETATM   21  O   UNL     1       3.750   1.152   0.000  1.00  0.00    -0.308 OA
HETATM   22  C   UNL     1       5.250   1.152   0.000  1.00  0.00     0.149 A 
HETATM   23  O   UNL     1       5.668   6.390   0.000  1.00  0.00    -0.189 OA
ENDROOT
BRANCH  20  24
HETATM   24  N   UNL     1      14.053   2.250   0.000  1.00  0.00    -0.122 N 
HETATM   25  O   UNL     1      15.352   3.000   0.000  1.00  0.00    -0.532 OA
HETATM   26  O   UNL     1      14.053   0.750   0.000  1.00  0.00    -0.532 OA
ENDBRANCH  20  24
TORSDOF 1
