REMARK  1 active torsions:
REMARK  status: ('A' for Active; 'I' for Inactive)
REMARK    1  A    between atoms: C_13  and  N_16 
ROOT
HETATM    1  C   UNL     1       0.750   3.348   0.000  1.00  0.00     0.009 A 
HETATM    2  C   UNL     1       1.500   4.647   0.000  1.00  0.00     0.026 A 
HETATM    3  C   UNL     1       1.500   2.049   0.000  1.00  0.00     0.024 A 
HETATM    4  C   UNL     1       3.000   4.647   0.000  1.00  0.00     0.001 A 
HETATM    5  C   UNL     1       3.000   2.049   0.000  1.00  0.00    -0.029 A 
HETATM    6  C   UNL     1       3.750   3.348   0.000  1.00  0.00     0.051 A 
HETATM    7  N   UNL     1       5.250   3.348   0.000  1.00  0.00    -0.272 N 
HETATM    8  O   UNL     1       5.250   5.946   0.000  1.00  0.00    -0.296 OA
HETATM    9  C   UNL     1       6.000   2.049   0.000  1.00  0.00     0.257 A 
HETATM   10  C   UNL     1       6.000   4.647   0.000  1.00  0.00     0.270 A 
HETATM   11  N   UNL     1       7.500   2.049   0.000  1.00  0.00    -0.060 NA
HETATM   12  N   UNL     1       7.500   4.647   0.000  1.00  0.00    -0.019 NA
HETATM   13  C   UNL     1       8.250   3.348   0.000  1.00  0.00     0.746 A 
HETATM   14  C   UNL     1       3.750   5.946   0.000  1.00  0.00     0.176 A 
HETATM   15  C   UNL     1       3.750   0.750   0.000  1.00  0.00     0.028 C 
ENDROOT
BRANCH  13  16
HETATM   16  N   UNL     1       9.750   3.348   0.000  1.00  0.00    -0.084 NA
HETATM   17  C   UNL     1      10.500   4.647   0.000  1.00  0.00     0.172 C 
ENDBRANCH  13  16
TORSDOF 1
