REMARK  1 active torsions:
REMARK  status: ('A' for Active; 'I' for Inactive)
REMARK    1  A    between atoms: C_5  and  C_7 
ROOT
HETATM    1  C   UNL     1       2.873   5.524   0.000  1.00  0.00     0.121 A 
HETATM    2  O   UNL     1       4.243   4.914   0.000  1.00  0.00    -0.287 OA
HETATM    3  C   UNL     1       3.029   7.016   0.000  1.00  0.00     0.172 A 
HETATM    4  C   UNL     1       5.247   6.029   0.000  1.00  0.00     0.200 A 
HETATM    5  C   UNL     1       4.497   7.328   0.000  1.00  0.00     0.126 A 
HETATM    6  H   UNL     1       4.497   9.926   0.000  1.00  0.00     0.166 HD
HETATM    7  N   UNL     1       6.747   6.029   0.000  1.00  0.00    -0.224 NA
HETATM    8  N   UNL     1       5.247   8.627   0.000  1.00  0.00    -0.351 N 
HETATM    9  C   UNL     1       6.747   8.627   0.000  1.00  0.00     0.052 A 
HETATM   10  C   UNL     1       7.497   7.328   0.000  1.00  0.00     0.077 A 
HETATM   11  C   UNL     1       8.997   7.328   0.000  1.00  0.00     0.068 A 
HETATM   12  C   UNL     1       7.497   9.926   0.000  1.00  0.00     0.066 A 
HETATM   13  C   UNL     1       8.997   9.926   0.000  1.00  0.00    -0.045 A 
HETATM   14  C   UNL     1       9.747   8.627   0.000  1.00  0.00    -0.045 A 
HETATM   15  O   UNL     1       1.915   8.020   0.000  1.00  0.00    -0.186 OA
HETATM   16  C   UNL     1       9.747  11.225   0.000  1.00  0.00     0.026 C 
HETATM   17  C   UNL     1      11.247   8.627   0.000  1.00  0.00     0.026 C 
ENDROOT
BRANCH   1  18
HETATM   18  C   UNL     1       1.574   4.774   0.000  1.00  0.00    -0.017 A 
HETATM   19  C   UNL     1       0.275   5.524   0.000  1.00  0.00     0.024 A 
HETATM   20  C   UNL     1      -1.024   4.774   0.000  1.00  0.00     0.007 A 
HETATM   21  C   UNL     1      -1.024   3.275   0.000  1.00  0.00     0.034 A 
HETATM   22  C   UNL     1       0.275   2.525   0.000  1.00  0.00     0.156 A 
HETATM   23  C   UNL     1       1.574   3.275   0.000  1.00  0.00     0.057 A 
HETATM   24  O   UNL     1       0.275   1.024   0.000  1.00  0.00    -0.223 OA
ENDBRANCH   1  18
TORSDOF 1
