REMARK  3 active torsions:
REMARK  status: ('A' for Active; 'I' for Inactive)
REMARK    1  A    between atoms: C_7  and  C_8 
REMARK    2  A    between atoms: C_11  and  C_13 
REMARK    3  A    between atoms: C_18  and  N_19 
ROOT
HETATM    1  C   UNL     1       7.024   0.275   0.000  1.00  0.00     0.096 A 
HETATM    2  C   UNL     1       7.906   1.488   0.000  1.00  0.00     0.178 A 
HETATM    3  O   UNL     1       7.906  -0.939   0.000  1.00  0.00    -0.293 OA
HETATM    4  C   UNL     1       9.333  -0.475   0.000  1.00  0.00     0.170 A 
HETATM    5  N   UNL     1       9.333   1.024   0.000  1.00  0.00    -0.242 NA
ENDROOT
BRANCH   4   6
HETATM    6  C   UNL     1      10.546  -1.357   0.000  1.00  0.00    -0.003 A 
HETATM    7  C   UNL     1      11.917  -0.747   0.000  1.00  0.00     0.032 A 
HETATM    8  C   UNL     1      13.130  -1.629   0.000  1.00  0.00     0.050 A 
HETATM    9  C   UNL     1      12.973  -3.120   0.000  1.00  0.00     0.083 A 
HETATM   10  C   UNL     1      11.603  -3.731   0.000  1.00  0.00     0.050 A 
HETATM   11  C   UNL     1      10.389  -2.849   0.000  1.00  0.00     0.032 A 
BRANCH   9  12
HETATM   12  N   UNL     1      14.187  -4.002   0.000  1.00  0.00    -0.122 N 
HETATM   13  O   UNL     1      15.557  -3.392   0.000  1.00  0.00    -0.532 OA
HETATM   14  O   UNL     1      14.030  -5.494   0.000  1.00  0.00    -0.532 OA
ENDBRANCH   9  12
ENDBRANCH   4   6
BRANCH   1  15
HETATM   15  C   UNL     1       5.524   0.275   0.000  1.00  0.00    -0.023 A 
HETATM   16  C   UNL     1       4.774   1.574   0.000  1.00  0.00     0.029 A 
HETATM   17  C   UNL     1       3.275   1.574   0.000  1.00  0.00     0.033 A 
HETATM   18  C   UNL     1       2.525   0.275   0.000  1.00  0.00    -0.009 A 
HETATM   19 BR   UNL     1       1.024   0.275   0.000  1.00  0.00    -0.058 Br
HETATM   20  C   UNL     1       3.275  -1.024   0.000  1.00  0.00     0.033 A 
HETATM   21  C   UNL     1       4.774  -1.024   0.000  1.00  0.00     0.029 A 
ENDBRANCH   1  15
TORSDOF 3
