REMARK  2 active torsions:
REMARK  status: ('A' for Active; 'I' for Inactive)
REMARK    1  A    between atoms: C_7  and  C_9 
REMARK       I    between atoms: C_9  and  N_18 
REMARK    2  A    between atoms: C_11  and  N_18 
ROOT
HETATM    1  C   UNL     1       9.000   2.049   0.000  1.00  0.00     0.040 A 
HETATM    2  C   UNL     1       9.750   0.750   0.000  1.00  0.00     0.042 A 
HETATM    3  C   UNL     1       9.750   3.348   0.000  1.00  0.00     0.053 A 
HETATM    4  C   UNL     1      11.250   0.750   0.000  1.00  0.00     0.007 A 
HETATM    5  C   UNL     1      11.250   3.348   0.000  1.00  0.00     0.058 A 
HETATM    6  C   UNL     1      12.000   4.647   0.000  1.00  0.00    -0.153 C 
HETATM    7  C   UNL     1      12.000   2.049   0.000  1.00  0.00     0.013 A 
HETATM    8  C   UNL     1      12.750   5.946   0.000  1.00  0.00     0.076 C 
ENDROOT
BRANCH   1   9
HETATM    9  N   UNL     1       7.500   2.049   0.000  1.00  0.00    -0.229 NA
HETATM   10  C   UNL     1       6.750   3.348   0.000  1.00  0.00     0.209 C 
HETATM   11  O   UNL     1       7.500   4.647   0.000  1.00  0.00    -0.170 OA
BRANCH  10  12
HETATM   12  C   UNL     1       5.250   3.348   0.000  1.00  0.00     0.029 A 
HETATM   13  C   UNL     1       4.500   4.647   0.000  1.00  0.00     0.036 A 
HETATM   14  C   UNL     1       3.000   4.647   0.000  1.00  0.00     0.039 A 
HETATM   15  C   UNL     1       2.250   3.348   0.000  1.00  0.00     0.019 A 
HETATM   16 CL   UNL     1       0.750   3.348   0.000  1.00  0.00    -0.091 Cl
HETATM   17  C   UNL     1       3.000   2.049   0.000  1.00  0.00     0.071 A 
HETATM   18  C   UNL     1       4.500   2.049   0.000  1.00  0.00     0.040 A 
HETATM   19 CL   UNL     1       5.250   0.750   0.000  1.00  0.00    -0.087 Cl
ENDBRANCH  10  12
ENDBRANCH   1   9
TORSDOF 2
