REMARK  3 active torsions:
REMARK  status: ('A' for Active; 'I' for Inactive)
REMARK    1  A    between atoms: C_2  and  N_12 
REMARK    2  A    between atoms: C_6  and  S_7 
REMARK    3  A    between atoms: S_7  and  N_10 
ROOT
HETATM    1  C   UNL     1       3.650  -0.375   0.000  1.00  0.00     0.066 A 
HETATM    2  C   UNL     1       4.399   0.924   0.000  1.00  0.00     0.114 A 
HETATM    3  C   UNL     1       4.399  -1.674   0.000  1.00  0.00     0.043 A 
HETATM    4  C   UNL     1       5.899   0.924   0.000  1.00  0.00     0.069 A 
HETATM    5  C   UNL     1       5.899  -1.674   0.000  1.00  0.00     0.024 A 
HETATM    6  C   UNL     1       6.649  -0.375   0.000  1.00  0.00     0.134 A 
HETATM    7  N   UNL     1       2.150  -0.375   0.000  1.00  0.00    -0.104 NA
ENDROOT
BRANCH   6   8
HETATM    8  S   UNL     1       8.149  -0.375   0.000  1.00  0.00     0.243 S 
HETATM    9  O   UNL     1       8.149   1.125   0.000  1.00  0.00    -0.205 OA
HETATM   10  O   UNL     1       8.149  -1.875   0.000  1.00  0.00    -0.205 OA
BRANCH   8  11
HETATM   11  N   UNL     1       9.649  -0.375   0.000  1.00  0.00    -0.274 N 
HETATM   12  C   UNL     1      10.399   0.924   0.000  1.00  0.00     0.138 C 
HETATM   13  C   UNL     1      10.399  -1.674   0.000  1.00  0.00     0.138 C 
ENDBRANCH   8  11
ENDBRANCH   6   8
BRANCH   2  14
HETATM   14  N   UNL     1       3.650   2.223   0.000  1.00  0.00    -0.117 N 
HETATM   15  O   UNL     1       2.150   2.223   0.000  1.00  0.00    -0.532 OA
HETATM   16  O   UNL     1       4.399   3.522   0.000  1.00  0.00    -0.532 OA
ENDBRANCH   2  14
TORSDOF 3
