REMARK  2 active torsions:
REMARK  status: ('A' for Active; 'I' for Inactive)
REMARK    1  A    between atoms: C_2  and  C_12 
REMARK       I    between atoms: C_2  and  N_18 
REMARK    2  A    between atoms: C_3  and  N_18 
ROOT
HETATM    1  C   UNL     1      -5.524  -0.275   0.000  1.00  0.00     0.103 A 
HETATM    2  O   UNL     1      -5.524  -2.873   0.000  1.00  0.00    -0.170 OA
HETATM    3  C   UNL     1      -4.774   1.024   0.000  1.00  0.00     0.058 A 
HETATM    4  C   UNL     1      -4.774  -1.574   0.000  1.00  0.00     0.206 A 
HETATM    5  C   UNL     1      -3.275   1.024   0.000  1.00  0.00     0.079 A 
HETATM    6  N   UNL     1      -3.275  -1.574   0.000  1.00  0.00    -0.314 N 
HETATM    7  H   UNL     1      -2.525  -2.873   0.000  1.00  0.00     0.170 HD
HETATM    8  C   UNL     1      -2.525  -0.275   0.000  1.00  0.00     0.170 A 
HETATM    9  O   UNL     1      -1.024  -0.275   0.000  1.00  0.00    -0.176 OA
ENDROOT
BRANCH   1  10
HETATM   10  N   UNL     1      -7.024  -0.275   0.000  1.00  0.00    -0.221 NA
HETATM   11  C   UNL     1      -7.774   1.024   0.000  1.00  0.00     0.205 C 
HETATM   12  O   UNL     1      -7.024   2.324   0.000  1.00  0.00    -0.170 OA
BRANCH  11  13
HETATM   13  C   UNL     1      -9.274   1.024   0.000  1.00  0.00    -0.001 A 
HETATM   14  C   UNL     1     -10.024  -0.275   0.000  1.00  0.00     0.026 A 
HETATM   15  C   UNL     1     -11.524  -0.275   0.000  1.00  0.00     0.004 A 
HETATM   16  C   UNL     1     -12.274   1.024   0.000  1.00  0.00     0.001 A 
HETATM   17  C   UNL     1     -11.524   2.324   0.000  1.00  0.00     0.004 A 
HETATM   18  C   UNL     1     -10.024   2.324   0.000  1.00  0.00     0.026 A 
ENDBRANCH  11  13
ENDBRANCH   1  10
TORSDOF 2
