REMARK  8 active torsions:
REMARK  status: ('A' for Active; 'I' for Inactive)
REMARK    1  A    between atoms: C_8  and  C_17 
REMARK    2  A    between atoms: C_10  and  C_19 
REMARK    3  A    between atoms: O_11  and  C_12 
REMARK    4  A    between atoms: O_11  and  C_17 
REMARK       I    between atoms: C_12  and  N_20 
REMARK    5  A    between atoms: O_14  and  C_16 
REMARK    6  A    between atoms: O_14  and  C_19 
REMARK       I    between atoms: C_16  and  N_24 
REMARK    7  A    between atoms: N_20  and  C_21 
REMARK    8  A    between atoms: N_24  and  C_25 
ROOT
HETATM    1  O   UNL     1      -5.227   0.352   0.000  1.00  0.00    -0.224 OA
HETATM    2  O   UNL     1      -5.352  -1.652   0.000  1.00  0.00    -0.224 OA
HETATM    3  S   UNL     1      -4.177  -0.719   0.000  1.00  0.00     0.198 S 
HETATM    4  C   UNL     1      -3.222   0.438   0.000  1.00  0.00     0.168 A 
HETATM    5  C   UNL     1      -3.372  -1.985   0.000  1.00  0.00     0.230 A 
HETATM    6  C   UNL     1      -1.827  -0.113   0.000  1.00  0.00     0.052 A 
HETATM    7  N   UNL     1      -1.919  -1.611   0.000  1.00  0.00    -0.320 N 
HETATM    8  C   UNL     1      -0.374   0.261   0.000  1.00  0.00     0.020 A 
HETATM    9  C   UNL     1      -0.524  -2.162   0.000  1.00  0.00     0.036 A 
HETATM   10  C   UNL     1       0.431  -1.005   0.000  1.00  0.00     0.019 A 
HETATM   11  C   UNL     1      -0.150  -3.614   0.000  1.00  0.00     0.050 C 
ENDROOT
BRANCH   8  12
HETATM   12  C   UNL     1       0.177   1.656   0.000  1.00  0.00     0.180 C 
BRANCH  12  13
HETATM   13  O   UNL     1      -0.756   2.831   0.000  1.00  0.00    -0.289 OA
BRANCH  13  14
HETATM   14  C   UNL     1      -0.205   4.226   0.000  1.00  0.00     0.318 C 
HETATM   15  O   UNL     1       1.279   4.446   0.000  1.00  0.00    -0.141 OA
HETATM   16  N   UNL     1      -1.137   5.401   0.000  1.00  0.00    -0.207 NA
BRANCH  16  17
HETATM   17  C   UNL     1      -0.587   6.796   0.000  1.00  0.00     0.042 C 
HETATM   18  C   UNL     1       0.897   7.016   0.000  1.00  0.00     0.047 C 
HETATM   19  C   UNL     1      -1.519   7.971   0.000  1.00  0.00     0.047 C 
ENDBRANCH  16  17
ENDBRANCH  13  14
ENDBRANCH  12  13
ENDBRANCH   8  12
BRANCH  10  20
HETATM   20  C   UNL     1       1.928  -1.098   0.000  1.00  0.00     0.180 C 
BRANCH  20  21
HETATM   21  O   UNL     1       2.353  -2.536   0.000  1.00  0.00    -0.289 OA
BRANCH  21  22
HETATM   22  C   UNL     1       3.850  -2.629   0.000  1.00  0.00     0.318 C 
HETATM   23  O   UNL     1       4.679  -1.379   0.000  1.00  0.00    -0.141 OA
HETATM   24  N   UNL     1       4.518  -3.972   0.000  1.00  0.00    -0.207 NA
BRANCH  24  25
HETATM   25  C   UNL     1       3.689  -5.222   0.000  1.00  0.00     0.042 C 
HETATM   26  C   UNL     1       2.192  -5.130   0.000  1.00  0.00     0.047 C 
HETATM   27  C   UNL     1       4.357  -6.565   0.000  1.00  0.00     0.047 C 
ENDBRANCH  24  25
ENDBRANCH  21  22
ENDBRANCH  20  21
ENDBRANCH  10  20
TORSDOF 8
