REMARK  0 active torsions:
REMARK  status: ('A' for Active; 'I' for Inactive)
ROOT
HETATM    1  O   UNL     1      -3.133   0.730   0.000  1.00  0.00    -0.322 OA
HETATM    2  O   UNL     1      -2.670  -3.124   0.000  1.00  0.00    -0.193 OA
HETATM    3  C   UNL     1      -5.859   1.016   0.000  1.00  0.00     0.174 A 
HETATM    4  C   UNL     1      -4.560   0.266   0.000  1.00  0.00     0.119 A 
HETATM    5  C   UNL     1      -7.158   0.266   0.000  1.00  0.00     0.136 A 
HETATM    6  C   UNL     1      -4.560  -1.234   0.000  1.00  0.00     0.026 A 
HETATM    7  C   UNL     1      -7.158  -1.234   0.000  1.00  0.00     0.061 A 
HETATM    8  C   UNL     1      -3.133  -1.697   0.000  1.00  0.00     0.137 A 
HETATM    9  C   UNL     1      -2.251  -0.484   0.000  1.00  0.00     0.202 A 
HETATM   10  C   UNL     1      -5.859  -1.984   0.000  1.00  0.00     0.037 A 
HETATM   11  O   UNL     1      -8.457   1.016   0.000  1.00  0.00    -0.193 OA
HETATM   12  O   UNL     1      -5.859   2.516   0.000  1.00  0.00    -0.186 OA
ENDROOT
TORSDOF 0
