REMARK  1 active torsions:
REMARK  status: ('A' for Active; 'I' for Inactive)
REMARK    1  A    between atoms: C_3  and  C_17 
ROOT
HETATM    1  C   UNL     1       4.922  -2.525   0.000  1.00  0.00     0.119 A 
HETATM    2  C   UNL     1       3.623  -3.275   0.000  1.00  0.00    -0.019 A 
HETATM    3  C   UNL     1       4.922  -1.024   0.000  1.00  0.00     0.174 A 
HETATM    4  C   UNL     1       2.324  -2.525   0.000  1.00  0.00     0.031 A 
HETATM    5  C   UNL     1       3.623  -0.275   0.000  1.00  0.00     0.136 A 
HETATM    6  C   UNL     1       2.324  -1.024   0.000  1.00  0.00     0.061 A 
HETATM    7  O   UNL     1       6.221  -0.275   0.000  1.00  0.00    -0.186 OA
HETATM    8  O   UNL     1       3.623   1.226   0.000  1.00  0.00    -0.193 OA
HETATM    9  C   UNL     1       3.623  -4.774   0.000  1.00  0.00     0.031 A 
HETATM   10  C   UNL     1       4.922  -5.524   0.000  1.00  0.00     0.056 A 
HETATM   11  C   UNL     1       6.221  -4.774   0.000  1.00  0.00     0.076 A 
HETATM   12  O   UNL     1       6.221  -3.275   0.000  1.00  0.00    -0.310 OA
ENDROOT
BRANCH  11  13
HETATM   13  C   UNL     1       7.520  -5.524   0.000  1.00  0.00     0.018 A 
HETATM   14  C   UNL     1       8.819  -4.774   0.000  1.00  0.00     0.030 A 
HETATM   15  C   UNL     1      10.118  -5.524   0.000  1.00  0.00     0.005 A 
HETATM   16  C   UNL     1      10.118  -7.024   0.000  1.00  0.00     0.007 A 
HETATM   17  C   UNL     1       8.819  -7.774   0.000  1.00  0.00     0.054 A 
HETATM   18  C   UNL     1       7.520  -7.024   0.000  1.00  0.00     0.106 A 
HETATM   19  O   UNL     1       6.221  -7.774   0.000  1.00  0.00    -0.195 OA
ENDBRANCH  11  13
TORSDOF 1
