REMARK  2 active torsions:
REMARK  status: ('A' for Active; 'I' for Inactive)
REMARK    1  A    between atoms: C_5  and  O_7 
REMARK    2  A    between atoms: O_7  and  P_9 
ROOT
HETATM    1  O   UNL     1       2.826   8.498   0.000  1.00  0.00    -0.281 OA
HETATM    2  P   UNL     1       2.826   6.998   0.000  1.00  0.00     0.257 P 
HETATM    3  C   UNL     1       2.826   5.498   0.000  1.00  0.00     0.031 A 
HETATM    4  C   UNL     1       4.125   4.748   0.000  1.00  0.00    -0.025 A 
HETATM    5  C   UNL     1       4.125   3.248   0.000  1.00  0.00     0.026 A 
HETATM    6  C   UNL     1       2.826   2.498   0.000  1.00  0.00     0.005 A 
HETATM    7  C   UNL     1       1.527   3.248   0.000  1.00  0.00     0.005 A 
HETATM    8  C   UNL     1       1.527   4.748   0.000  1.00  0.00     0.032 A 
HETATM    9  C   UNL     1       4.326   6.998   0.000  1.00  0.00     0.031 A 
HETATM   10  C   UNL     1       5.076   8.297   0.000  1.00  0.00     0.032 A 
HETATM   11  C   UNL     1       6.576   8.297   0.000  1.00  0.00     0.005 A 
HETATM   12  C   UNL     1       7.326   6.998   0.000  1.00  0.00     0.005 A 
HETATM   13  C   UNL     1       6.576   5.699   0.000  1.00  0.00     0.026 A 
HETATM   14  C   UNL     1       5.076   5.699   0.000  1.00  0.00    -0.025 A 
ENDROOT
BRANCH   2  15
HETATM   15  O   UNL     1       1.326   6.998   0.000  1.00  0.00    -0.311 OA
BRANCH  15  16
HETATM   16  C   UNL     1       0.576   8.297   0.000  1.00  0.00     0.123 A 
HETATM   17  C   UNL     1      -0.924   8.297   0.000  1.00  0.00     0.030 A 
HETATM   18  C   UNL     1      -1.674   9.596   0.000  1.00  0.00     0.003 A 
HETATM   19  C   UNL     1      -0.924  10.895   0.000  1.00  0.00     0.000 A 
HETATM   20  C   UNL     1       0.576  10.895   0.000  1.00  0.00     0.003 A 
HETATM   21  C   UNL     1       1.326   9.596   0.000  1.00  0.00     0.030 A 
ENDBRANCH  15  16
ENDBRANCH   2  15
TORSDOF 2
