REMARK  3 active torsions:
REMARK  status: ('A' for Active; 'I' for Inactive)
REMARK    1  A    between atoms: O_1  and  C_3 
REMARK    2  A    between atoms: C_6  and  O_8 
REMARK    3  A    between atoms: C_7  and  N_13 
REMARK       I    between atoms: C_9  and  N_11 
REMARK       I    between atoms: C_9  and  N_13 
ROOT
HETATM    1  C   UNL     1       2.250   3.348   0.000  1.00  0.00     0.037 A 
HETATM    2  C   UNL     1       3.000   4.647   0.000  1.00  0.00     0.122 A 
HETATM    3  C   UNL     1       3.000   2.049   0.000  1.00  0.00     0.055 A 
HETATM    4  C   UNL     1       4.500   4.647   0.000  1.00  0.00     0.077 A 
HETATM    5  C   UNL     1       4.500   2.049   0.000  1.00  0.00     0.085 A 
HETATM    6  C   UNL     1       5.250   3.348   0.000  1.00  0.00     0.083 A 
ENDROOT
BRANCH   6   7
HETATM    7  N   UNL     1       6.750   3.348   0.000  1.00  0.00    -0.208 NA
HETATM    8  C   UNL     1       7.500   4.647   0.000  1.00  0.00     0.278 C 
HETATM    9  O   UNL     1       6.750   5.946   0.000  1.00  0.00    -0.149 OA
HETATM   10  N   UNL     1       9.000   4.647   0.000  1.00  0.00    -0.312 N 
HETATM   11  C   UNL     1       9.750   5.946   0.000  1.00  0.00     0.105 A 
HETATM   12  C   UNL     1       9.750   3.348   0.000  1.00  0.00     0.105 A 
HETATM   13  C   UNL     1      11.250   5.946   0.000  1.00  0.00     0.022 A 
HETATM   14  C   UNL     1      12.000   7.245   0.000  1.00  0.00     0.002 C 
HETATM   15  C   UNL     1      12.000   4.647   0.000  1.00  0.00     0.004 A 
HETATM   16  C   UNL     1      11.250   3.348   0.000  1.00  0.00     0.024 A 
ENDBRANCH   6   7
BRANCH   5  17
HETATM   17  O   UNL     1       5.250   0.750   0.000  1.00  0.00    -0.331 OA
HETATM   18  C   UNL     1       6.750   0.750   0.000  1.00  0.00     0.181 C 
ENDBRANCH   5  17
BRANCH   2  19
HETATM   19  O   UNL     1       2.250   5.946   0.000  1.00  0.00    -0.354 OA
HETATM   20  C   UNL     1       0.750   5.946   0.000  1.00  0.00     0.174 C 
ENDBRANCH   2  19
TORSDOF 3
