REMARK  1 active torsions:
REMARK  status: ('A' for Active; 'I' for Inactive)
REMARK    1  A    between atoms: N_7  and  C_21 
ROOT
HETATM    1  C   UNL     1      -0.432   7.644   0.000  1.00  0.00     0.005 A 
HETATM    2  C   UNL     1      -1.314   6.431   0.000  1.00  0.00     0.007 A 
HETATM    3  C   UNL     1       1.060   7.488   0.000  1.00  0.00     0.028 A 
HETATM    4  C   UNL     1      -0.704   5.061   0.000  1.00  0.00     0.043 A 
HETATM    5  C   UNL     1       1.670   6.117   0.000  1.00  0.00    -0.008 A 
HETATM    6  C   UNL     1       0.788   4.904   0.000  1.00  0.00     0.033 A 
HETATM    7  N   UNL     1       1.670   3.690   0.000  1.00  0.00    -0.335 N 
HETATM    8  C   UNL     1       3.096   5.654   0.000  1.00  0.00     0.027 A 
HETATM    9  C   UNL     1       3.096   4.154   0.000  1.00  0.00     0.038 A 
HETATM   10  N   UNL     1       4.396   7.904   0.000  1.00  0.00    -0.264 NA
HETATM   11  C   UNL     1       4.396   3.404   0.000  1.00  0.00     0.050 A 
HETATM   12  C   UNL     1       4.396   6.404   0.000  1.00  0.00     0.089 A 
HETATM   13  C   UNL     1       5.695   5.654   0.000  1.00  0.00     0.054 A 
HETATM   14  C   UNL     1       5.694   8.654   0.000  1.00  0.00     0.165 A 
HETATM   15  C   UNL     1       5.695   4.154   0.000  1.00  0.00     0.052 A 
HETATM   16  N   UNL     1       6.994   6.404   0.000  1.00  0.00    -0.335 N 
HETATM   17  C   UNL     1       6.994   7.904   0.000  1.00  0.00     0.039 A 
HETATM   18  C   UNL     1       8.420   8.367   0.000  1.00  0.00     0.043 A 
HETATM   19  C   UNL     1       8.420   5.940   0.000  1.00  0.00     0.106 A 
HETATM   20  C   UNL     1       9.302   7.154   0.000  1.00  0.00     0.030 A 
ENDROOT
BRANCH   7  21
HETATM   21  C   UNL     1       1.206   2.264   0.000  1.00  0.00     0.106 C 
HETATM   22  C   UNL     1      -0.261   1.952   0.000  1.00  0.00     0.026 C 
ENDBRANCH   7  21
TORSDOF 1
