REMARK  3 active torsions:
REMARK  status: ('A' for Active; 'I' for Inactive)
REMARK    1  A    between atoms: C_6  and  C_7 
REMARK    2  A    between atoms: C_7  and  N_10 
REMARK    3  A    between atoms: N_10  and  C_11 
ROOT
HETATM    1  C   UNL     1       6.750   3.348   0.000  1.00  0.00     0.142 C 
HETATM    2  N   UNL     1       7.500   4.647   0.000  1.00  0.00    -0.080 NA
ENDROOT
BRANCH   1   3
HETATM    3  C   UNL     1       5.250   3.348   0.000  1.00  0.00    -0.013 A 
HETATM    4  C   UNL     1       4.500   4.647   0.000  1.00  0.00     0.025 A 
HETATM    5  C   UNL     1       3.000   4.647   0.000  1.00  0.00     0.004 A 
HETATM    6  C   UNL     1       2.250   3.348   0.000  1.00  0.00     0.001 A 
HETATM    7  C   UNL     1       3.000   2.049   0.000  1.00  0.00     0.004 A 
HETATM    8  C   UNL     1       0.750   3.348   0.000  1.00  0.00     0.000 C 
HETATM    9  C   UNL     1       4.500   2.049   0.000  1.00  0.00     0.025 A 
ENDBRANCH   1   3
BRANCH   1  10
HETATM   10  N   UNL     1       7.500   2.049   0.000  1.00  0.00    -0.241 NA
BRANCH  10  11
HETATM   11  C   UNL     1       9.000   2.049   0.000  1.00  0.00     0.038 A 
HETATM   12  C   UNL     1       9.750   3.348   0.000  1.00  0.00     0.041 A 
HETATM   13  C   UNL     1      11.250   3.348   0.000  1.00  0.00     0.006 A 
HETATM   14  C   UNL     1      12.000   2.049   0.000  1.00  0.00     0.001 A 
HETATM   15  C   UNL     1      11.250   0.750   0.000  1.00  0.00     0.006 A 
HETATM   16  C   UNL     1       9.750   0.750   0.000  1.00  0.00     0.041 A 
ENDBRANCH  10  11
ENDBRANCH   1  10
TORSDOF 3
