REMARK  3 active torsions:
REMARK  status: ('A' for Active; 'I' for Inactive)
REMARK    1  A    between atoms: C_8  and  S_14 
REMARK    2  A    between atoms: O_13  and  S_14 
REMARK    3  A    between atoms: O_13  and  C_17 
ROOT
HETATM    1  O   UNL     1       4.217   6.088   0.000  1.00  0.00    -0.215 OA
ENDROOT
BRANCH   1   2
HETATM    2  S   UNL     1       2.918   6.838   0.000  1.00  0.00     0.283 S 
HETATM    3  O   UNL     1       3.668   8.137   0.000  1.00  0.00    -0.197 OA
HETATM    4  O   UNL     1       1.619   7.588   0.000  1.00  0.00    -0.197 OA
BRANCH   2   5
HETATM    5  C   UNL     1       2.168   5.539   0.000  1.00  0.00     0.135 A 
HETATM    6  C   UNL     1       0.668   5.539   0.000  1.00  0.00     0.018 A 
HETATM    7  C   UNL     1      -0.082   4.240   0.000  1.00  0.00     0.001 A 
HETATM    8  C   UNL     1       0.668   2.941   0.000  1.00  0.00     0.000 A 
HETATM    9  C   UNL     1       2.168   2.941   0.000  1.00  0.00     0.001 A 
HETATM   10  C   UNL     1      -0.082   1.642   0.000  1.00  0.00     0.000 C 
HETATM   11  C   UNL     1       2.918   4.240   0.000  1.00  0.00     0.018 A 
ENDBRANCH   2   5
ENDBRANCH   1   2
BRANCH   1  12
HETATM   12  C   UNL     1       5.516   6.838   0.000  1.00  0.00     0.177 A 
HETATM   13  N   UNL     1       6.815   6.088   0.000  1.00  0.00    -0.230 NA
HETATM   14  C   UNL     1       8.114   6.838   0.000  1.00  0.00     0.058 A 
HETATM   15  C   UNL     1       8.114   8.338   0.000  1.00  0.00     0.001 A 
HETATM   16  C   UNL     1       9.541   6.374   0.000  1.00  0.00     0.046 A 
HETATM   17  C   UNL     1       6.815   9.088   0.000  1.00  0.00     0.053 A 
HETATM   18  C   UNL     1       9.541   8.802   0.000  1.00  0.00     0.029 A 
HETATM   19  C   UNL     1       5.516   8.338   0.000  1.00  0.00     0.113 A 
HETATM   20  N   UNL     1       6.815  10.588   0.000  1.00  0.00    -0.105 NA
HETATM   21  C   UNL     1      10.422   7.588   0.000  1.00  0.00     0.011 A 
ENDBRANCH   1  12
TORSDOF 3
