REMARK  4 active torsions:
REMARK  status: ('A' for Active; 'I' for Inactive)
REMARK       I    between atoms: N_1  and  C_32 
REMARK       I    between atoms: N_2  and  C_34 
REMARK    1  A    between atoms: C_8  and  C_9 
REMARK    2  A    between atoms: C_12  and  N_31 
REMARK    3  A    between atoms: C_17  and  N_36 
REMARK    4  A    between atoms: C_20  and  C_21 
REMARK       I    between atoms: N_31  and  C_32 
REMARK       I    between atoms: C_34  and  N_36 
ROOT
HETATM    1  N   UNL     1       9.843   6.000   0.000  1.00  0.00    -0.309 N 
HETATM    2  N   UNL     1      12.441   7.500   0.000  1.00  0.00    -0.309 N 
HETATM    3  C   UNL     1      11.142   8.250   0.000  1.00  0.00     0.129 A 
HETATM    4  C   UNL     1       9.843   7.500   0.000  1.00  0.00     0.129 A 
HETATM    5  C   UNL     1      12.441   6.000   0.000  1.00  0.00     0.129 A 
HETATM    6  C   UNL     1      11.142   5.250   0.000  1.00  0.00     0.129 A 
HETATM    7  N   UNL     1       8.544   3.750   0.000  1.00  0.00    -0.213 NA
HETATM    8  C   UNL     1       8.544   5.250   0.000  1.00  0.00     0.277 C 
HETATM    9  O   UNL     1       7.245   6.000   0.000  1.00  0.00    -0.149 OA
HETATM   10  C   UNL     1      13.740   8.250   0.000  1.00  0.00     0.277 C 
HETATM   11  O   UNL     1      13.740   9.750   0.000  1.00  0.00    -0.149 OA
HETATM   12  N   UNL     1      15.039   7.500   0.000  1.00  0.00    -0.213 NA
ENDROOT
BRANCH   7  13
HETATM   13  C   UNL     1       7.245   3.000   0.000  1.00  0.00     0.044 A 
HETATM   14  C   UNL     1       5.946   3.750   0.000  1.00  0.00     0.063 A 
HETATM   15  C   UNL     1       4.647   3.000   0.000  1.00  0.00    -0.046 A 
HETATM   16  C   UNL     1       4.647   1.500   0.000  1.00  0.00     0.022 A 
HETATM   17  C   UNL     1       5.946   0.750   0.000  1.00  0.00     0.010 A 
HETATM   18  C   UNL     1       7.245   1.500   0.000  1.00  0.00     0.042 A 
BRANCH  15  19
HETATM   19  C   UNL     1       3.348   3.750   0.000  1.00  0.00    -0.052 A 
HETATM   20  C   UNL     1       3.348   5.250   0.000  1.00  0.00     0.021 A 
HETATM   21  C   UNL     1       2.049   6.000   0.000  1.00  0.00     0.004 A 
HETATM   22  C   UNL     1       0.750   5.250   0.000  1.00  0.00     0.001 A 
HETATM   23  C   UNL     1       0.750   3.750   0.000  1.00  0.00     0.004 A 
HETATM   24  C   UNL     1       2.049   3.000   0.000  1.00  0.00     0.021 A 
ENDBRANCH  15  19
ENDBRANCH   7  13
BRANCH  12  25
HETATM   25  C   UNL     1      16.338   8.250   0.000  1.00  0.00     0.044 A 
HETATM   26  C   UNL     1      16.338   9.750   0.000  1.00  0.00     0.042 A 
HETATM   27  C   UNL     1      17.637  10.500   0.000  1.00  0.00     0.010 A 
HETATM   28  C   UNL     1      18.936   9.750   0.000  1.00  0.00     0.022 A 
HETATM   29  C   UNL     1      18.936   8.250   0.000  1.00  0.00    -0.046 A 
HETATM   30  C   UNL     1      17.637   7.500   0.000  1.00  0.00     0.063 A 
BRANCH  29  31
HETATM   31  C   UNL     1      20.236   7.500   0.000  1.00  0.00    -0.052 A 
HETATM   32  C   UNL     1      21.535   8.250   0.000  1.00  0.00     0.021 A 
HETATM   33  C   UNL     1      22.834   7.500   0.000  1.00  0.00     0.004 A 
HETATM   34  C   UNL     1      22.834   6.000   0.000  1.00  0.00     0.001 A 
HETATM   35  C   UNL     1      21.535   5.250   0.000  1.00  0.00     0.004 A 
HETATM   36  C   UNL     1      20.236   6.000   0.000  1.00  0.00     0.021 A 
ENDBRANCH  29  31
ENDBRANCH  12  25
TORSDOF 4
