REMARK  2 active torsions:
REMARK  status: ('A' for Active; 'I' for Inactive)
REMARK       I    between atoms: N_6  and  C_7 
REMARK       I    between atoms: C_7  and  N_23 
REMARK    1  A    between atoms: C_9  and  N_23 
REMARK    2  A    between atoms: C_13  and  N_25 
REMARK       I    between atoms: C_15  and  N_17 
REMARK       I    between atoms: C_15  and  N_25 
ROOT
HETATM    1  C   UNL     1      -3.000   5.946   0.000  1.00  0.00     0.047 A 
HETATM    2  C   UNL     1      -1.500   5.946   0.000  1.00  0.00     0.046 A 
HETATM    3  C   UNL     1      -3.750   7.245   0.000  1.00  0.00     0.087 A 
HETATM    4  C   UNL     1      -0.750   7.245   0.000  1.00  0.00     0.029 A 
HETATM    5  C   UNL     1      -3.000   8.544   0.000  1.00  0.00     0.060 A 
HETATM    6  C   UNL     1      -1.500   8.544   0.000  1.00  0.00    -0.029 A 
HETATM    7  C   UNL     1      -0.750   9.843   0.000  1.00  0.00     0.028 C 
ENDROOT
BRANCH   1   8
HETATM    8  N   UNL     1      -3.750   4.647   0.000  1.00  0.00    -0.213 NA
HETATM    9  C   UNL     1      -5.250   4.647   0.000  1.00  0.00     0.277 C 
HETATM   10  N   UNL     1      -6.000   3.348   0.000  1.00  0.00    -0.312 N 
HETATM   11  O   UNL     1      -6.000   5.946   0.000  1.00  0.00    -0.149 OA
HETATM   12  C   UNL     1      -7.500   3.348   0.000  1.00  0.00     0.105 A 
HETATM   13  C   UNL     1      -5.250   2.049   0.000  1.00  0.00     0.105 A 
HETATM   14  C   UNL     1      -8.250   2.049   0.000  1.00  0.00     0.024 A 
HETATM   15  C   UNL     1      -7.500   0.750   0.000  1.00  0.00     0.004 A 
HETATM   16  C   UNL     1      -6.000   0.750   0.000  1.00  0.00     0.024 A 
ENDBRANCH   1   8
BRANCH   5  17
HETATM   17  N   UNL     1      -3.750   9.843   0.000  1.00  0.00    -0.210 NA
HETATM   18  C   UNL     1      -5.250   9.843   0.000  1.00  0.00     0.278 C 
HETATM   19  O   UNL     1      -6.000   8.544   0.000  1.00  0.00    -0.149 OA
HETATM   20  N   UNL     1      -6.000  11.142   0.000  1.00  0.00    -0.312 N 
HETATM   21  C   UNL     1      -7.500  11.142   0.000  1.00  0.00     0.105 A 
HETATM   22  C   UNL     1      -5.250  12.441   0.000  1.00  0.00     0.105 A 
HETATM   23  C   UNL     1      -8.250  12.441   0.000  1.00  0.00     0.024 A 
HETATM   24  C   UNL     1      -7.500  13.740   0.000  1.00  0.00     0.004 A 
HETATM   25  C   UNL     1      -6.000  13.740   0.000  1.00  0.00     0.024 A 
ENDBRANCH   5  17
TORSDOF 2
