REMARK  3 active torsions:
REMARK  status: ('A' for Active; 'I' for Inactive)
REMARK    1  A    between atoms: C_6  and  C_7 
REMARK       I    between atoms: C_7  and  N_23 
REMARK    2  A    between atoms: C_9  and  N_23 
REMARK    3  A    between atoms: C_16  and  C_17 
ROOT
HETATM    1  C   UNL     1       9.000   2.049   0.000  1.00  0.00     0.046 A 
HETATM    2  C   UNL     1       9.750   3.348   0.000  1.00  0.00     0.097 A 
HETATM    3  C   UNL     1       9.750   0.750   0.000  1.00  0.00     0.048 A 
HETATM    4  C   UNL     1      11.250   0.750   0.000  1.00  0.00     0.054 A 
HETATM    5  C   UNL     1      11.250   3.348   0.000  1.00  0.00     0.128 A 
HETATM    6  C   UNL     1      12.000   2.049   0.000  1.00  0.00     0.083 A 
HETATM    7  O   UNL     1      13.500   4.647   0.000  1.00  0.00    -0.169 OA
HETATM    8  C   UNL     1      14.250   3.348   0.000  1.00  0.00     0.231 A 
HETATM    9  O   UNL     1      12.000   4.647   0.000  1.00  0.00    -0.192 OA
HETATM   10  N   UNL     1      13.500   2.049   0.000  1.00  0.00    -0.221 NA
ENDROOT
BRANCH   1  11
HETATM   11  N   UNL     1       7.500   2.049   0.000  1.00  0.00    -0.229 NA
HETATM   12  C   UNL     1       6.750   3.348   0.000  1.00  0.00     0.204 C 
HETATM   13  O   UNL     1       7.500   4.647   0.000  1.00  0.00    -0.170 OA
BRANCH  12  14
HETATM   14  C   UNL     1       5.250   3.348   0.000  1.00  0.00    -0.000 A 
HETATM   15  C   UNL     1       4.500   4.647   0.000  1.00  0.00     0.028 A 
HETATM   16  C   UNL     1       3.000   4.647   0.000  1.00  0.00     0.043 A 
HETATM   17  C   UNL     1       2.250   3.348   0.000  1.00  0.00     0.303 A 
HETATM   18  C   UNL     1       3.000   2.049   0.000  1.00  0.00     0.043 A 
HETATM   19  N   UNL     1       0.750   3.348   0.000  1.00  0.00     0.616 N 
HETATM   20  C   UNL     1       4.500   2.049   0.000  1.00  0.00     0.028 A 
ENDBRANCH  12  14
ENDBRANCH   1  11
BRANCH   8  21
HETATM   21  C   UNL     1      15.750   3.348   0.000  1.00  0.00     0.115 A 
HETATM   22  C   UNL     1      16.632   4.562   0.000  1.00  0.00     0.057 A 
HETATM   23  C   UNL     1      18.058   4.098   0.000  1.00  0.00     0.040 A 
HETATM   24  C   UNL     1      18.058   2.598   0.000  1.00  0.00     0.149 A 
HETATM   25  O   UNL     1      16.632   2.135   0.000  1.00  0.00    -0.331 OA
ENDBRANCH   8  21
TORSDOF 3
