REMARK  2 active torsions:
REMARK  status: ('A' for Active; 'I' for Inactive)
REMARK    1  A    between atoms: C_9  and  C_11 
REMARK       I    between atoms: C_11  and  N_20 
REMARK    2  A    between atoms: C_13  and  N_20 
ROOT
HETATM    1  C   UNL     1      -1.674   5.899   0.000  1.00  0.00     0.005 A 
HETATM    2  C   UNL     1      -1.674   4.399   0.000  1.00  0.00     0.005 A 
HETATM    3  C   UNL     1      -0.375   3.650   0.000  1.00  0.00     0.022 A 
HETATM    4  C   UNL     1       0.924   4.399   0.000  1.00  0.00    -0.045 A 
HETATM    5  C   UNL     1       0.924   5.899   0.000  1.00  0.00    -0.047 A 
HETATM    6  C   UNL     1      -0.375   6.649   0.000  1.00  0.00     0.022 A 
HETATM    7  C   UNL     1       2.223   3.650   0.000  1.00  0.00     0.075 A 
HETATM    8  C   UNL     1       3.522   4.399   0.000  1.00  0.00     0.112 A 
HETATM    9  C   UNL     1       3.522   5.899   0.000  1.00  0.00     0.047 A 
HETATM   10  C   UNL     1       2.223   6.649   0.000  1.00  0.00     0.053 A 
HETATM   11  O   UNL     1       4.821   3.650   0.000  1.00  0.00    -0.195 OA
ENDROOT
BRANCH   9  12
HETATM   12  C   UNL     1       4.821   6.649   0.000  1.00  0.00     0.210 C 
HETATM   13  O   UNL     1       4.821   8.149   0.000  1.00  0.00    -0.170 OA
HETATM   14  N   UNL     1       6.120   5.899   0.000  1.00  0.00    -0.229 NA
BRANCH  14  15
HETATM   15  C   UNL     1       7.419   6.649   0.000  1.00  0.00     0.039 A 
HETATM   16  C   UNL     1       8.718   5.899   0.000  1.00  0.00     0.041 A 
HETATM   17  C   UNL     1      10.017   6.649   0.000  1.00  0.00     0.006 A 
HETATM   18  C   UNL     1      10.017   8.149   0.000  1.00  0.00     0.001 A 
HETATM   19  C   UNL     1       8.718   8.899   0.000  1.00  0.00     0.006 A 
HETATM   20  C   UNL     1       7.419   8.149   0.000  1.00  0.00     0.041 A 
ENDBRANCH  14  15
ENDBRANCH   9  12
TORSDOF 2
