REMARK  4 active torsions:
REMARK  status: ('A' for Active; 'I' for Inactive)
REMARK    1  A    between atoms: O_1  and  C_24 
REMARK    2  A    between atoms: O_1  and  C_25 
REMARK    3  A    between atoms: O_4  and  C_10 
REMARK    4  A    between atoms: O_4  and  C_11 
ROOT
HETATM    1  O   UNL     1      -6.120  -4.399   0.000  1.00  0.00    -0.190 OA
HETATM    2  O   UNL     1      -6.120 -10.399   0.000  1.00  0.00    -0.190 OA
HETATM    3  C   UNL     1      -3.522  -5.899   0.000  1.00  0.00     0.073 A 
HETATM    4  C   UNL     1      -2.223  -6.649   0.000  1.00  0.00     0.051 A 
HETATM    5  C   UNL     1      -4.821  -6.649   0.000  1.00  0.00     0.041 A 
HETATM    6  C   UNL     1      -6.120  -5.899   0.000  1.00  0.00     0.128 A 
HETATM    7  C   UNL     1      -7.419  -6.649   0.000  1.00  0.00     0.007 A 
HETATM    8  C   UNL     1      -8.718  -5.899   0.000  1.00  0.00     0.029 A 
HETATM    9  C   UNL     1     -10.017  -6.649   0.000  1.00  0.00     0.011 A 
HETATM   10  C   UNL     1      -2.223  -8.149   0.000  1.00  0.00     0.011 A 
HETATM   11  C   UNL     1      -4.821  -8.149   0.000  1.00  0.00     0.007 A 
HETATM   12  C   UNL     1      -7.419  -8.149   0.000  1.00  0.00     0.041 A 
HETATM   13  C   UNL     1     -10.017  -8.149   0.000  1.00  0.00     0.051 A 
HETATM   14  C   UNL     1      -3.522  -8.899   0.000  1.00  0.00     0.029 A 
HETATM   15  C   UNL     1      -6.120  -8.899   0.000  1.00  0.00     0.128 A 
HETATM   16  C   UNL     1      -8.718  -8.899   0.000  1.00  0.00     0.073 A 
ENDROOT
BRANCH   3  17
HETATM   17  O   UNL     1      -3.522  -4.399   0.000  1.00  0.00    -0.338 OA
BRANCH  17  18
HETATM   18  C   UNL     1      -2.223  -3.650   0.000  1.00  0.00     0.121 A 
HETATM   19  C   UNL     1      -0.924  -4.399   0.000  1.00  0.00     0.030 A 
HETATM   20  C   UNL     1       0.375  -3.650   0.000  1.00  0.00     0.003 A 
HETATM   21  C   UNL     1       0.375  -2.150   0.000  1.00  0.00     0.000 A 
HETATM   22  C   UNL     1      -0.924  -1.399   0.000  1.00  0.00     0.003 A 
HETATM   23  C   UNL     1      -2.223  -2.150   0.000  1.00  0.00     0.030 A 
ENDBRANCH  17  18
ENDBRANCH   3  17
BRANCH  16  24
HETATM   24  O   UNL     1      -8.718 -10.399   0.000  1.00  0.00    -0.338 OA
BRANCH  24  25
HETATM   25  C   UNL     1     -10.017 -11.149   0.000  1.00  0.00     0.121 A 
HETATM   26  C   UNL     1     -10.017 -12.649   0.000  1.00  0.00     0.030 A 
HETATM   27  C   UNL     1     -11.316 -13.399   0.000  1.00  0.00     0.003 A 
HETATM   28  C   UNL     1     -12.615 -12.650   0.000  1.00  0.00     0.000 A 
HETATM   29  C   UNL     1     -12.615 -11.150   0.000  1.00  0.00     0.003 A 
HETATM   30  C   UNL     1     -11.316 -10.399   0.000  1.00  0.00     0.030 A 
ENDBRANCH  24  25
ENDBRANCH  16  24
TORSDOF 4
