REMARK  1 active torsions:
REMARK  status: ('A' for Active; 'I' for Inactive)
REMARK    1  A    between atoms: C_6  and  C_31 
ROOT
HETATM    1  O   UNL     1      -3.389 -17.525   0.000  1.00  0.00    -0.223 OA
HETATM    2  F   UNL     1      -0.067 -13.257   0.000  1.00  0.00    -0.369 F 
HETATM    3  O   UNL     1      -1.513  -5.858   0.000  1.00  0.00    -0.221 OA
HETATM    4  O   UNL     1       1.153  -6.590   0.000  1.00  0.00    -0.334 OA
HETATM    5  O   UNL     1       3.461  -7.340   0.000  1.00  0.00    -0.317 OA
HETATM    6  C   UNL     1       2.579  -6.126   0.000  1.00  0.00     0.192 A 
HETATM    7  C   UNL     1       1.153  -8.090   0.000  1.00  0.00     0.135 A 
HETATM    8  C   UNL     1       2.579  -8.553   0.000  1.00  0.00     0.076 A 
HETATM    9  C   UNL     1       0.271  -9.303   0.000  1.00  0.00     0.033 A 
HETATM   10  C   UNL     1      -1.220  -9.460   0.000  1.00  0.00     0.066 A 
HETATM   11  C   UNL     1      -1.831 -10.830   0.000  1.00  0.00     0.151 A 
HETATM   12  C   UNL     1       2.579 -10.053   0.000  1.00  0.00     0.043 A 
HETATM   13  C   UNL     1       1.153 -10.517   0.000  1.00  0.00     0.025 A 
HETATM   14  C   UNL     1      -0.949 -12.044   0.000  1.00  0.00     0.149 A 
HETATM   15  C   UNL     1       0.543 -11.887   0.000  1.00  0.00     0.047 A 
HETATM   16  C   UNL     1      -1.559 -13.414   0.000  1.00  0.00     0.147 A 
HETATM   17  C   UNL     1      -3.051 -13.571   0.000  1.00  0.00    -0.003 A 
HETATM   18  C   UNL     1      -3.661 -14.941   0.000  1.00  0.00     0.056 A 
HETATM   19  C   UNL     1       1.425 -13.101   0.000  1.00  0.00     0.001 A 
HETATM   20  C   UNL     1      -0.677 -14.628   0.000  1.00  0.00    -0.033 A 
HETATM   21  C   UNL     1      -2.779 -16.155   0.000  1.00  0.00     0.160 A 
HETATM   22  C   UNL     1       0.814 -14.471   0.000  1.00  0.00     0.020 A 
HETATM   23  C   UNL     1      -1.288 -15.998   0.000  1.00  0.00     0.054 A 
HETATM   24  O   UNL     1      -3.322 -10.987   0.000  1.00  0.00    -0.349 OA
HETATM   25  C   UNL     1      -2.441 -12.201   0.000  1.00  0.00     0.160 A 
HETATM   26  C   UNL     1      -1.201  -7.325   0.000  1.00  0.00     0.182 A 
HETATM   27  C   UNL     1      -2.316  -8.329   0.000  1.00  0.00     0.185 A 
HETATM   28  O   UNL     1      -3.742  -7.865   0.000  1.00  0.00    -0.221 OA
HETATM   29  C   UNL     1      -0.479  -8.004   0.000  1.00  0.00     0.066 A 
HETATM   30  C   UNL     1       1.969  -4.756   0.000  1.00  0.00     0.062 C 
ENDROOT
BRANCH   6  31
HETATM   31  C   UNL     1       3.879  -5.376   0.000  1.00  0.00     0.052 A 
HETATM   32  C   UNL     1       3.878  -3.876   0.000  1.00  0.00     0.005 A 
HETATM   33  C   UNL     1       5.178  -3.126   0.000  1.00  0.00     0.000 A 
HETATM   34  C   UNL     1       6.477  -3.876   0.000  1.00  0.00     0.000 A 
HETATM   35  C   UNL     1       6.477  -5.376   0.000  1.00  0.00     0.000 A 
HETATM   36  C   UNL     1       5.178  -6.126   0.000  1.00  0.00     0.005 A 
ENDBRANCH   6  31
TORSDOF 1
