REMARK  1 active torsions:
REMARK  status: ('A' for Active; 'I' for Inactive)
REMARK    1  A    between atoms: C_6  and  C_7 
ROOT
HETATM    1  C   UNL     1      -2.049  -0.750   0.000  1.00  0.00     0.046 A 
HETATM    2  C   UNL     1      -0.750  -1.500   0.000  1.00  0.00     0.007 A 
HETATM    3  C   UNL     1      -3.348  -1.500   0.000  1.00  0.00     0.062 A 
HETATM    4  C   UNL     1      -5.656  -2.250   0.000  1.00  0.00     0.104 A 
HETATM    5  C   UNL     1      -0.750  -3.000   0.000  1.00  0.00     0.006 A 
HETATM    6  C   UNL     1      -3.348  -3.000   0.000  1.00  0.00     0.022 A 
HETATM    7  C   UNL     1      -2.049  -3.750   0.000  1.00  0.00     0.034 A 
HETATM    8  N   UNL     1      -4.775  -1.036   0.000  1.00  0.00    -0.244 NA
HETATM    9  S   UNL     1      -4.775  -3.463   0.000  1.00  0.00    -0.072 SA
ENDROOT
BRANCH   4  10
HETATM   10  C   UNL     1      -7.156  -2.250   0.000  1.00  0.00     0.003 A 
HETATM   11  C   UNL     1      -7.906  -0.951   0.000  1.00  0.00     0.028 A 
HETATM   12  C   UNL     1      -9.406  -0.951   0.000  1.00  0.00     0.030 A 
HETATM   13  C   UNL     1     -10.156  -2.250   0.000  1.00  0.00     0.121 A 
HETATM   14  N   UNL     1      -9.406  -3.549   0.000  1.00  0.00    -0.291 NA
HETATM   15  C   UNL     1      -7.906  -3.549   0.000  1.00  0.00     0.144 A 
ENDBRANCH   4  10
TORSDOF 1
