REMARK  3 active torsions:
REMARK  status: ('A' for Active; 'I' for Inactive)
REMARK    1  A    between atoms: C_1  and  N_2 
REMARK    2  A    between atoms: C_1  and  N_17 
REMARK    3  A    between atoms: C_8  and  C_18 
REMARK       I    between atoms: N_17  and  C_18 
ROOT
HETATM    1  N   UNL     1       5.799   3.175   0.000  1.00  0.00    -0.230 NA
HETATM    2  C   UNL     1       7.098   3.925   0.000  1.00  0.00     0.202 C 
HETATM    3  O   UNL     1       7.098   5.425   0.000  1.00  0.00    -0.170 OA
ENDROOT
BRANCH   1   4
HETATM    4  C   UNL     1       4.500   3.925   0.000  1.00  0.00     0.149 A 
HETATM    5  C   UNL     1       5.013   5.335   0.000  1.00  0.00     0.048 A 
HETATM    6  C   UNL     1       3.536   5.074   0.000  1.00  0.00     0.048 A 
BRANCH   4   7
HETATM    7  N   UNL     1       3.536   2.776   0.000  1.00  0.00    -0.350 N 
HETATM    8  C   UNL     1       2.059   3.037   0.000  1.00  0.00     0.131 A 
HETATM    9  C   UNL     1       1.094   1.888   0.000  1.00  0.00     0.166 A 
HETATM   10  O   UNL     1       1.607   0.478   0.000  1.00  0.00    -0.350 OA
HETATM   11  C   UNL     1       3.085   0.218   0.000  1.00  0.00     0.166 A 
HETATM   12  C   UNL     1       4.049   1.367   0.000  1.00  0.00     0.131 A 
ENDBRANCH   4   7
ENDBRANCH   1   4
BRANCH   2  13
HETATM   13  C   UNL     1       8.397   3.175   0.000  1.00  0.00    -0.000 A 
HETATM   14  C   UNL     1       9.696   3.925   0.000  1.00  0.00     0.031 A 
HETATM   15  C   UNL     1      10.995   3.175   0.000  1.00  0.00     0.038 A 
HETATM   16  C   UNL     1      10.995   1.675   0.000  1.00  0.00     0.014 A 
HETATM   17 CL   UNL     1      12.294   0.925   0.000  1.00  0.00    -0.092 Cl
HETATM   18  C   UNL     1       9.696   0.925   0.000  1.00  0.00     0.038 A 
HETATM   19  C   UNL     1       8.397   1.675   0.000  1.00  0.00     0.031 A 
ENDBRANCH   2  13
TORSDOF 3
