REMARK  6 active torsions:
REMARK  status: ('A' for Active; 'I' for Inactive)
REMARK    1  A    between atoms: C_6  and  C_7 
REMARK    2  A    between atoms: C_7  and  C_9 
REMARK    3  A    between atoms: C_13  and  C_20 
REMARK    4  A    between atoms: C_14  and  S_15 
REMARK    5  A    between atoms: C_14  and  S_17 
REMARK    6  A    between atoms: C_14  and  C_20 
ROOT
HETATM    1  C   UNL     1       7.774  -1.573   0.000  1.00  0.00     0.062 A 
HETATM    2  C   UNL     1       9.266  -1.730   0.000  1.00  0.00     0.052 A 
HETATM    3  N   UNL     1       7.164  -2.944   0.000  1.00  0.00    -0.334 N 
HETATM    4  C   UNL     1       9.578  -3.197   0.000  1.00  0.00     0.046 A 
HETATM    5  C   UNL     1       8.279  -3.947   0.000  1.00  0.00     0.017 A 
HETATM    6  C   UNL     1       5.697  -3.256   0.000  1.00  0.00     0.130 C 
ENDROOT
BRANCH   1   7
HETATM    7  C   UNL     1       7.024  -0.275   0.000  1.00  0.00     0.135 C 
HETATM    8  O   UNL     1       7.774   1.024   0.000  1.00  0.00    -0.190 OA
BRANCH   7   9
HETATM    9  C   UNL     1       5.524  -0.275   0.000  1.00  0.00    -0.018 A 
HETATM   10  C   UNL     1       4.774   1.024   0.000  1.00  0.00     0.024 A 
HETATM   11  C   UNL     1       3.275   1.024   0.000  1.00  0.00     0.004 A 
HETATM   12  C   UNL     1       2.525  -0.275   0.000  1.00  0.00     0.001 A 
HETATM   13  C   UNL     1       3.275  -1.574   0.000  1.00  0.00     0.004 A 
HETATM   14  C   UNL     1       1.024  -0.275   0.000  1.00  0.00     0.000 C 
HETATM   15  C   UNL     1       4.774  -1.573   0.000  1.00  0.00     0.024 A 
ENDBRANCH   7   9
ENDBRANCH   1   7
BRANCH   5  16
HETATM   16  C   UNL     1       8.122  -5.439   0.000  1.00  0.00     0.064 C 
BRANCH  16  17
HETATM   17  C   UNL     1       9.336  -6.321   0.000  1.00  0.00     0.132 C 
BRANCH  17  18
HETATM   18  S   UNL     1      10.706  -5.711   0.000  1.00  0.00    -0.126 SA
HETATM   19  C   UNL     1      11.920  -6.593   0.000  1.00  0.00     0.070 C 
ENDBRANCH  17  18
BRANCH  17  20
HETATM   20  S   UNL     1       9.179  -7.813   0.000  1.00  0.00     0.052 S 
HETATM   21  O   UNL     1       7.809  -8.423   0.000  1.00  0.00    -0.255 OA
HETATM   22  C   UNL     1      10.393  -8.694   0.000  1.00  0.00     0.107 C 
ENDBRANCH  17  20
ENDBRANCH  16  17
ENDBRANCH   5  16
TORSDOF 6
