REMARK  4 active torsions:
REMARK  status: ('A' for Active; 'I' for Inactive)
REMARK    1  A    between atoms: C_12  and  C_25 
REMARK    2  A    between atoms: C_17  and  N_26 
REMARK    3  A    between atoms: C_22  and  O_23 
REMARK    4  A    between atoms: C_25  and  N_26 
ROOT
HETATM    1 CL   UNL     1       0.750   0.750   0.000  1.00  0.00    -0.085 Cl
HETATM    2  C   UNL     1       2.049   3.000   0.000  1.00  0.00     0.148 A 
HETATM    3  C   UNL     1       2.049   1.500   0.000  1.00  0.00     0.068 A 
HETATM    4  C   UNL     1       3.348   0.750   0.000  1.00  0.00     0.091 A 
HETATM    5  C   UNL     1       3.348   3.750   0.000  1.00  0.00     0.085 A 
HETATM    6 CL   UNL     1       3.348   5.250   0.000  1.00  0.00    -0.080 Cl
HETATM    7  C   UNL     1       4.647   1.500   0.000  1.00  0.00     0.084 A 
HETATM    8  C   UNL     1       4.647   3.000   0.000  1.00  0.00     0.030 A 
HETATM    9  O   UNL     1       6.074   1.036   0.000  1.00  0.00    -0.311 OA
HETATM   10  C   UNL     1       6.955   2.250   0.000  1.00  0.00     0.095 A 
HETATM   11  C   UNL     1       6.074   3.463   0.000  1.00  0.00     0.003 A 
HETATM   12  C   UNL     1       8.447   2.407   0.000  1.00  0.00     0.046 A 
HETATM   13  C   UNL     1       6.684   4.834   0.000  1.00  0.00     0.035 A 
HETATM   14  C   UNL     1       8.176   4.991   0.000  1.00  0.00     0.059 A 
HETATM   15  C   UNL     1       9.057   3.777   0.000  1.00  0.00     0.109 A 
HETATM   16  O   UNL     1      10.549   3.934   0.000  1.00  0.00    -0.195 OA
HETATM   17  O   UNL     1       0.750   3.750   0.000  1.00  0.00    -0.189 OA
ENDROOT
BRANCH  12  18
HETATM   18  C   UNL     1       9.329   1.193   0.000  1.00  0.00     0.155 C 
BRANCH  18  19
HETATM   19  N   UNL     1      10.821   1.350   0.000  1.00  0.00    -0.274 NA
BRANCH  19  20
HETATM   20  C   UNL     1      11.702   0.137   0.000  1.00  0.00     0.032 A 
HETATM   21  C   UNL     1      11.092  -1.234   0.000  1.00  0.00     0.043 A 
HETATM   22  C   UNL     1      11.974  -2.447   0.000  1.00  0.00     0.035 A 
HETATM   23  C   UNL     1      13.466  -2.291   0.000  1.00  0.00     0.116 A 
HETATM   24  C   UNL     1      14.076  -0.920   0.000  1.00  0.00     0.035 A 
HETATM   25  C   UNL     1      13.194   0.293   0.000  1.00  0.00     0.043 A 
BRANCH  23  26
HETATM   26  O   UNL     1      14.347  -3.504   0.000  1.00  0.00    -0.354 OA
HETATM   27  C   UNL     1      13.737  -4.874   0.000  1.00  0.00     0.174 C 
ENDBRANCH  23  26
ENDBRANCH  19  20
ENDBRANCH  18  19
ENDBRANCH  12  18
TORSDOF 4
