REMARK  2 active torsions:
REMARK  status: ('A' for Active; 'I' for Inactive)
REMARK    1  A    between atoms: S_9  and  C_10 
REMARK    2  A    between atoms: C_10  and  C_11 
ROOT
HETATM    1  N   UNL     1       0.750  -6.549   0.000  1.00  0.00    -0.240 NA
HETATM    2  C   UNL     1       1.500  -5.250   0.000  1.00  0.00     0.243 A 
HETATM    3  O   UNL     1       0.750  -3.951   0.000  1.00  0.00    -0.190 OA
HETATM    4  C   UNL     1       3.000  -5.250   0.000  1.00  0.00     0.095 A 
HETATM    5  C   UNL     1       3.000  -6.750   0.000  1.00  0.00     0.061 A 
HETATM    6  C   UNL     1       1.701  -7.500   0.000  1.00  0.00     0.071 A 
HETATM    7  C   UNL     1       4.500  -5.250   0.000  1.00  0.00     0.049 A 
HETATM    8  C   UNL     1       5.250  -6.549   0.000  1.00  0.00     0.011 C 
HETATM    9  S   UNL     1       3.000  -3.750   0.000  1.00  0.00    -0.157 SA
ENDROOT
BRANCH   9  10
HETATM   10  C   UNL     1       4.299  -3.000   0.000  1.00  0.00     0.044 C 
BRANCH  10  11
HETATM   11  C   UNL     1       4.299  -1.500   0.000  1.00  0.00     0.010 C 
HETATM   12  C   UNL     1       3.000  -0.750   0.000  1.00  0.00     0.001 C 
ENDBRANCH  10  11
ENDBRANCH   9  10
TORSDOF 2
