REMARK  1 active torsions:
REMARK  status: ('A' for Active; 'I' for Inactive)
REMARK    1  A    between atoms: C_22  and  O_23 
ROOT
HETATM    1 CL   UNL     1       0.750   0.750   0.000  1.00  0.00    -0.085 Cl
HETATM    2  C   UNL     1       2.049   3.000   0.000  1.00  0.00     0.148 A 
HETATM    3  C   UNL     1       2.049   1.500   0.000  1.00  0.00     0.068 A 
HETATM    4  C   UNL     1       3.348   3.750   0.000  1.00  0.00     0.085 A 
HETATM    5  C   UNL     1       3.348   0.750   0.000  1.00  0.00     0.091 A 
HETATM    6 CL   UNL     1       3.348   5.250   0.000  1.00  0.00    -0.080 Cl
HETATM    7  C   UNL     1       4.647   1.500   0.000  1.00  0.00     0.084 A 
HETATM    8  C   UNL     1       4.647   3.000   0.000  1.00  0.00     0.030 A 
HETATM    9  O   UNL     1       6.074   1.036   0.000  1.00  0.00    -0.312 OA
HETATM   10  C   UNL     1       6.955   2.250   0.000  1.00  0.00     0.093 A 
HETATM   11  C   UNL     1       6.074   3.463   0.000  1.00  0.00     0.003 A 
HETATM   12  C   UNL     1       6.684   4.834   0.000  1.00  0.00     0.033 A 
HETATM   13  C   UNL     1       8.447   2.407   0.000  1.00  0.00     0.020 A 
HETATM   14  N   UNL     1      11.394   0.561   0.000  1.00  0.00    -0.270 NA
HETATM   15  C   UNL     1       8.176   4.991   0.000  1.00  0.00     0.031 A 
HETATM   16  C   UNL     1       9.057   3.777   0.000  1.00  0.00    -0.026 A 
HETATM   17  C   UNL     1      12.004   1.932   0.000  1.00  0.00     0.050 A 
HETATM   18  C   UNL     1      11.122   3.145   0.000  1.00  0.00    -0.009 A 
HETATM   19  C   UNL     1      13.496   2.088   0.000  1.00  0.00     0.048 A 
HETATM   20  C   UNL     1      11.732   4.515   0.000  1.00  0.00     0.057 A 
HETATM   21  C   UNL     1      14.106   3.459   0.000  1.00  0.00     0.036 A 
HETATM   22  C   UNL     1      13.224   4.672   0.000  1.00  0.00     0.120 A 
HETATM   23  O   UNL     1       0.750   3.750   0.000  1.00  0.00    -0.189 OA
HETATM   24  C   UNL     1       9.902   0.405   0.000  1.00  0.00     0.153 A 
HETATM   25  O   UNL     1      10.549   3.934   0.000  1.00  0.00     0.000 OA
ENDROOT
BRANCH  22  26
HETATM   26  O   UNL     1      13.834   6.043   0.000  1.00  0.00    -0.354 OA
HETATM   27  C   UNL     1      12.953   7.256   0.000  1.00  0.00     0.174 C 
ENDBRANCH  22  26
TORSDOF 1
