REMARK  6 active torsions:
REMARK  status: ('A' for Active; 'I' for Inactive)
REMARK    1  A    between atoms: O_1  and  C_2 
REMARK    2  A    between atoms: O_3  and  C_4 
REMARK    3  A    between atoms: C_8  and  C_24 
REMARK    4  A    between atoms: C_9  and  C_24 
REMARK    5  A    between atoms: N_13  and  C_14 
REMARK    6  A    between atoms: C_20  and  S_21 
ROOT
HETATM    1  C   UNL     1       8.250   5.052   0.000  1.00  0.00     0.147 A 
HETATM    2  N   UNL     1       7.640   6.422   0.000  1.00  0.00    -0.133 NA
HETATM    3  N   UNL     1       9.742   5.209   0.000  1.00  0.00    -0.280 N 
HETATM    4  N   UNL     1       8.755   7.426   0.000  1.00  0.00    -0.122 NA
HETATM    5  C   UNL     1      10.054   6.676   0.000  1.00  0.00     0.196 A 
ENDROOT
BRANCH   1   6
HETATM    6  C   UNL     1       7.500   3.753   0.000  1.00  0.00     0.067 C 
BRANCH   6   7
HETATM    7  C   UNL     1       6.000   3.753   0.000  1.00  0.00     0.014 A 
HETATM    8  C   UNL     1       5.250   2.454   0.000  1.00  0.00     0.053 A 
HETATM    9  C   UNL     1       3.750   2.454   0.000  1.00  0.00     0.090 A 
HETATM   10  C   UNL     1       3.000   3.753   0.000  1.00  0.00     0.090 A 
HETATM   11  C   UNL     1       3.750   5.052   0.000  1.00  0.00     0.053 A 
HETATM   12  C   UNL     1       5.250   5.052   0.000  1.00  0.00     0.008 A 
BRANCH   9  13
HETATM   13  O   UNL     1       3.000   1.155   0.000  1.00  0.00    -0.331 OA
HETATM   14  C   UNL     1       1.500   1.155   0.000  1.00  0.00     0.181 C 
ENDBRANCH   9  13
BRANCH  10  15
HETATM   15  O   UNL     1       1.500   3.753   0.000  1.00  0.00    -0.331 OA
HETATM   16  C   UNL     1       0.750   5.052   0.000  1.00  0.00     0.181 C 
ENDBRANCH  10  15
ENDBRANCH   6   7
ENDBRANCH   1   6
BRANCH   3  17
HETATM   17  C   UNL     1      10.745   4.094   0.000  1.00  0.00     0.023 A 
HETATM   18  C   UNL     1      10.282   2.668   0.000  1.00  0.00     0.046 A 
HETATM   19  C   UNL     1      11.286   1.553   0.000  1.00  0.00     0.058 A 
HETATM   20  C   UNL     1      12.753   1.865   0.000  1.00  0.00     0.096 A 
HETATM   21  C   UNL     1      13.216   3.291   0.000  1.00  0.00     0.058 A 
HETATM   22  F   UNL     1      13.757   0.750   0.000  1.00  0.00    -0.213 F 
HETATM   23  C   UNL     1      12.213   4.406   0.000  1.00  0.00     0.046 A 
ENDBRANCH   3  17
BRANCH   5  24
HETATM   24  S   UNL     1      11.424   7.286   0.000  1.00  0.00    -0.074 SA
HETATM   25  C   UNL     1      11.581   8.778   0.000  1.00  0.00     0.077 C 
ENDBRANCH   5  24
TORSDOF 6
