REMARK  2 active torsions:
REMARK  status: ('A' for Active; 'I' for Inactive)
REMARK    1  A    between atoms: C_9  and  N_18 
REMARK    2  A    between atoms: C_11  and  N_18 
ROOT
HETATM    1  C   UNL     1      -1.601   4.272   0.000  1.00  0.00     0.011 A 
HETATM    2  C   UNL     1      -0.851   5.571   0.000  1.00  0.00     0.041 A 
HETATM    3  C   UNL     1      -0.851   2.973   0.000  1.00  0.00     0.040 A 
HETATM    4  C   UNL     1       0.649   5.571   0.000  1.00  0.00     0.067 A 
HETATM    5  C   UNL     1       0.649   2.973   0.000  1.00  0.00     0.054 A 
HETATM    6  C   UNL     1       1.399   4.272   0.000  1.00  0.00     0.099 A 
HETATM    7 CL   UNL     1       1.399   6.870   0.000  1.00  0.00    -0.018 Cl
HETATM    8 CL   UNL     1       1.399   1.674   0.000  1.00  0.00    -0.086 Cl
HETATM    9  C   UNL     1       3.650   5.571   0.000  1.00  0.00     0.285 A 
HETATM   10  O   UNL     1       2.900   6.870   0.000  1.00  0.00    -0.213 OA
HETATM   11  N   UNL     1       2.900   4.272   0.000  1.00  0.00    -0.203 NA
ENDROOT
BRANCH   9  12
HETATM   12  N   UNL     1       5.149   5.571   0.000  1.00  0.00    -0.211 NA
BRANCH  12  13
HETATM   13  C   UNL     1       5.899   6.870   0.000  1.00  0.00     0.065 A 
HETATM   14  C   UNL     1       5.149   8.169   0.000  1.00  0.00     0.166 A 
HETATM   15  N   UNL     1       5.899   9.468   0.000  1.00  0.00    -0.273 NA
HETATM   16  C   UNL     1       7.399   9.468   0.000  1.00  0.00     0.033 A 
HETATM   17  C   UNL     1       8.149   8.169   0.000  1.00  0.00     0.047 A 
HETATM   18  C   UNL     1       8.149  10.767   0.000  1.00  0.00     0.047 C 
HETATM   19  C   UNL     1       7.399   6.870   0.000  1.00  0.00     0.050 A 
ENDBRANCH  12  13
ENDBRANCH   9  12
TORSDOF 2
