REMARK  0 active torsions:
REMARK  status: ('A' for Active; 'I' for Inactive)
ROOT
HETATM    1  C   UNL     1      -2.272  10.055   0.000  1.00  0.00     0.007 A 
HETATM    2  C   UNL     1      -2.272   8.555   0.000  1.00  0.00     0.005 A 
HETATM    3  C   UNL     1      -0.972  10.805   0.000  1.00  0.00     0.052 A 
HETATM    4  C   UNL     1      -0.972   7.805   0.000  1.00  0.00     0.030 A 
HETATM    5  C   UNL     1       0.327  10.055   0.000  1.00  0.00     0.090 A 
HETATM    6  C   UNL     1       0.327   8.555   0.000  1.00  0.00     0.020 A 
HETATM    7  H   UNL     1       0.327   5.555   0.000  1.00  0.00     0.168 HD
HETATM    8  C   UNL     1       1.626   7.805   0.000  1.00  0.00     0.087 A 
HETATM    9  N   UNL     1       1.626   6.305   0.000  1.00  0.00    -0.327 N 
HETATM   10  S   UNL     1       2.925   8.555   0.000  1.00  0.00    -0.050 SA
HETATM   11  C   UNL     1       2.925   5.555   0.000  1.00  0.00     0.202 A 
HETATM   12  O   UNL     1       2.925   4.055   0.000  1.00  0.00    -0.170 OA
HETATM   13  C   UNL     1       4.224   7.805   0.000  1.00  0.00     0.124 A 
HETATM   14  C   UNL     1       4.224   6.305   0.000  1.00  0.00     0.120 A 
HETATM   15  C   UNL     1       5.523  10.055   0.000  1.00  0.00     0.067 A 
HETATM   16  C   UNL     1       6.822  10.805   0.000  1.00  0.00     0.046 A 
HETATM   17  C   UNL     1       6.822  12.305   0.000  1.00  0.00     0.007 A 
HETATM   18  C   UNL     1       4.224  10.805   0.000  1.00  0.00     0.062 A 
HETATM   19 CL   UNL     1       2.925  10.055   0.000  1.00  0.00    -0.022 Cl
HETATM   20  C   UNL     1       5.523  13.055   0.000  1.00  0.00     0.006 A 
HETATM   21  C   UNL     1       4.224  12.305   0.000  1.00  0.00     0.040 A 
HETATM   22  O   UNL     1       1.626  10.805   0.000  1.00  0.00    -0.255 OA
HETATM   23  C   UNL     1       5.523   5.555   0.000  1.00  0.00     0.027 C 
HETATM   24  N   UNL     1       6.822   4.805   0.000  1.00  0.00    -0.096 N 
HETATM   25  N   UNL     1       5.523   8.555   0.000  1.00  0.00    -0.242 NA
ENDROOT
TORSDOF 0
