REMARK  2 active torsions:
REMARK  status: ('A' for Active; 'I' for Inactive)
REMARK    1  A    between atoms: C_6  and  C_11 
REMARK    2  A    between atoms: C_9  and  S_12 
ROOT
HETATM    1  C   UNL     1      -1.931 -10.845   0.000  1.00  0.00     0.093 A 
HETATM    2  C   UNL     1      -1.931 -12.345   0.000  1.00  0.00     0.166 A 
HETATM    3  N   UNL     1      -0.320  -8.627   0.000  1.00  0.00    -0.209 NA
HETATM    4  C   UNL     1      -0.632 -10.095   0.000  1.00  0.00     0.172 A 
HETATM    5  N   UNL     1      -0.632 -13.095   0.000  1.00  0.00    -0.242 NA
HETATM    6  C   UNL     1       1.172  -8.471   0.000  1.00  0.00     0.149 A 
HETATM    7  N   UNL     1       0.667 -10.845   0.000  1.00  0.00    -0.211 N 
HETATM    8  C   UNL     1       0.667 -12.345   0.000  1.00  0.00     0.187 A 
HETATM    9  N   UNL     1       1.782  -9.841   0.000  1.00  0.00    -0.273 N 
HETATM   10  H   UNL     1       3.249 -10.153   0.000  1.00  0.00     0.189 HD
HETATM   11  C   UNL     1      -3.230 -10.095   0.000  1.00  0.00     0.022 C 
HETATM   12  N   UNL     1      -4.529  -9.345   0.000  1.00  0.00    -0.096 N 
ENDROOT
BRANCH   6  13
HETATM   13  C   UNL     1       1.922  -7.172   0.000  1.00  0.00    -0.008 A 
HETATM   14  C   UNL     1       1.172  -5.873   0.000  1.00  0.00     0.030 A 
HETATM   15  C   UNL     1       1.922  -4.574   0.000  1.00  0.00     0.038 A 
HETATM   16  C   UNL     1       3.422  -4.574   0.000  1.00  0.00     0.014 A 
HETATM   17 CL   UNL     1       4.172  -3.275   0.000  1.00  0.00    -0.092 Cl
HETATM   18  C   UNL     1       4.172  -5.873   0.000  1.00  0.00     0.038 A 
HETATM   19  C   UNL     1       3.422  -7.172   0.000  1.00  0.00     0.030 A 
ENDBRANCH   6  13
BRANCH   8  20
HETATM   20  S   UNL     1       1.966 -13.095   0.000  1.00  0.00    -0.075 SA
HETATM   21  C   UNL     1       3.265 -12.345   0.000  1.00  0.00     0.077 C 
ENDBRANCH   8  20
TORSDOF 2
