REMARK  5 active torsions:
REMARK  status: ('A' for Active; 'I' for Inactive)
REMARK    1  A    between atoms: C_1  and  C_10 
REMARK    2  A    between atoms: C_5  and  C_7 
REMARK    3  A    between atoms: C_7  and  C_8 
REMARK    4  A    between atoms: C_10  and  C_11 
REMARK    5  A    between atoms: C_14  and  C_15 
ROOT
HETATM    1  C   UNL     1      -7.245  -3.000   0.000  1.00  0.00    -0.022 A 
HETATM    2  C   UNL     1      -8.544  -3.750   0.000  1.00  0.00     0.024 A 
HETATM    3  C   UNL     1      -5.946  -3.750   0.000  1.00  0.00     0.088 A 
HETATM    4  C   UNL     1      -5.946  -5.250   0.000  1.00  0.00     0.035 A 
HETATM    5  C   UNL     1      -8.544  -5.250   0.000  1.00  0.00     0.009 A 
HETATM    6  C   UNL     1      -7.245  -6.000   0.000  1.00  0.00     0.032 A 
HETATM    7  O   UNL     1      -4.647  -3.000   0.000  1.00  0.00    -0.306 OA
HETATM    8  C   UNL     1      -3.348  -3.750   0.000  1.00  0.00     0.245 A 
HETATM    9  C   UNL     1      -4.647  -6.000   0.000  1.00  0.00     0.165 A 
HETATM   10  O   UNL     1      -3.348  -5.250   0.000  1.00  0.00    -0.292 OA
HETATM   11  N   UNL     1      -4.647  -7.500   0.000  1.00  0.00    -0.074 NA
ENDROOT
BRANCH   1  12
HETATM   12  C   UNL     1      -7.245  -1.500   0.000  1.00  0.00     0.024 C 
BRANCH  12  13
HETATM   13  C   UNL     1      -8.544  -0.750   0.000  1.00  0.00     0.004 C 
HETATM   14  C   UNL     1      -9.843  -1.500   0.000  1.00  0.00     0.000 C 
ENDBRANCH  12  13
ENDBRANCH   1  12
BRANCH   5  15
HETATM   15  C   UNL     1      -9.843  -6.000   0.000  1.00  0.00     0.001 C 
BRANCH  15  16
HETATM   16  C   UNL     1     -11.142  -5.250   0.000  1.00  0.00     0.000 C 
HETATM   17  C   UNL     1     -12.441  -6.000   0.000  1.00  0.00     0.000 C 
ENDBRANCH  15  16
ENDBRANCH   5  15
BRANCH   8  18
HETATM   18  C   UNL     1      -2.049  -3.000   0.000  1.00  0.00     0.062 C 
HETATM   19  C   UNL     1      -0.750  -3.750   0.000  1.00  0.00     0.005 C 
ENDBRANCH   8  18
TORSDOF 5
