REMARK  5 active torsions:
REMARK  status: ('A' for Active; 'I' for Inactive)
REMARK    1  A    between atoms: C_2  and  C_5 
REMARK    2  A    between atoms: C_10  and  N_16 
REMARK       I    between atoms: C_12  and  N_16 
REMARK    3  A    between atoms: C_12  and  C_17 
REMARK    4  A    between atoms: C_14  and  N_15 
REMARK    5  A    between atoms: C_14  and  C_17 
ROOT
HETATM    1  C   UNL     1       2.250   3.348   0.000  1.00  0.00     0.015 A 
HETATM    2  C   UNL     1       3.000   4.647   0.000  1.00  0.00     0.102 A 
HETATM    3  C   UNL     1       3.000   2.049   0.000  1.00  0.00     0.040 A 
HETATM    4  C   UNL     1       4.500   4.647   0.000  1.00  0.00     0.055 A 
HETATM    5  C   UNL     1       4.500   2.049   0.000  1.00  0.00     0.049 A 
HETATM    6  C   UNL     1       5.250   3.348   0.000  1.00  0.00     0.068 A 
HETATM    7 CL   UNL     1       5.250   0.750   0.000  1.00  0.00    -0.086 Cl
ENDROOT
BRANCH   6   8
HETATM    8  N   UNL     1       6.750   3.348   0.000  1.00  0.00    -0.227 NA
HETATM    9  C   UNL     1       7.500   4.647   0.000  1.00  0.00     0.196 C 
HETATM   10  O   UNL     1       6.750   5.946   0.000  1.00  0.00    -0.174 OA
BRANCH   9  11
HETATM   11  C   UNL     1       9.000   4.647   0.000  1.00  0.00     0.137 C 
BRANCH  11  12
HETATM   12  C   UNL     1       9.750   5.946   0.000  1.00  0.00     0.166 C 
HETATM   13  N   UNL     1       9.000   7.245   0.000  1.00  0.00    -0.082 NA
BRANCH  12  14
HETATM   14  N   UNL     1      11.250   5.946   0.000  1.00  0.00    -0.086 NA
HETATM   15  O   UNL     1      12.000   7.245   0.000  1.00  0.00    -0.060 OA
ENDBRANCH  12  14
ENDBRANCH  11  12
ENDBRANCH   9  11
ENDBRANCH   6   8
BRANCH   2  16
HETATM   16  C   UNL     1       2.250   5.946   0.000  1.00  0.00     0.398 C 
HETATM   17  F   UNL     1       0.750   5.946   0.000  1.00  0.00    -0.170 F 
HETATM   18  F   UNL     1       1.500   7.245   0.000  1.00  0.00    -0.170 F 
HETATM   19  F   UNL     1       3.000   7.245   0.000  1.00  0.00    -0.170 F 
ENDBRANCH   2  16
TORSDOF 5
