REMARK  1 active torsions:
REMARK  status: ('A' for Active; 'I' for Inactive)
REMARK    1  A    between atoms: C_5  and  C_8 
ROOT
HETATM    1  H   UNL     1       3.348   2.250   0.000  1.00  0.00     0.168 HD
HETATM    2  C   UNL     1       4.647   4.500   0.000  1.00  0.00     0.082 A 
HETATM    3  N   UNL     1       4.647   3.000   0.000  1.00  0.00    -0.328 N 
HETATM    4  S   UNL     1       5.946   5.250   0.000  1.00  0.00    -0.051 SA
HETATM    5  C   UNL     1       5.946   2.250   0.000  1.00  0.00     0.194 A 
HETATM    6  O   UNL     1       5.946   0.750   0.000  1.00  0.00    -0.171 OA
HETATM    7  C   UNL     1       7.245   4.500   0.000  1.00  0.00     0.116 A 
HETATM    8  C   UNL     1       7.245   3.000   0.000  1.00  0.00     0.074 A 
HETATM    9  C   UNL     1       9.843   4.500   0.000  1.00  0.00     0.085 A 
HETATM   10 CL   UNL     1      11.142   6.750   0.000  1.00  0.00    -0.086 Cl
HETATM   11  C   UNL     1       9.843   3.000   0.000  1.00  0.00     0.127 A 
HETATM   12  C   UNL     1      11.142   5.250   0.000  1.00  0.00     0.051 A 
HETATM   13  C   UNL     1      12.441   4.500   0.000  1.00  0.00     0.041 A 
HETATM   14  C   UNL     1      11.142   2.250   0.000  1.00  0.00     0.086 A 
HETATM   15  C   UNL     1      12.441   3.000   0.000  1.00  0.00     0.024 A 
HETATM   16  N   UNL     1       8.544   5.250   0.000  1.00  0.00    -0.241 NA
HETATM   17  C   UNL     1       8.544   2.250   0.000  1.00  0.00     0.040 A 
HETATM   18  N   UNL     1       9.843   1.500   0.000  1.00  0.00    -0.246 NA
ENDROOT
BRANCH   2  19
HETATM   19  C   UNL     1       3.348   5.250   0.000  1.00  0.00    -0.018 A 
HETATM   20  C   UNL     1       2.049   4.500   0.000  1.00  0.00     0.050 A 
HETATM   21  C   UNL     1       0.750   5.250   0.000  1.00  0.00     0.124 A 
HETATM   22  N   UNL     1       0.750   6.750   0.000  1.00  0.00    -0.295 NA
HETATM   23  C   UNL     1       2.049   7.500   0.000  1.00  0.00     0.124 A 
HETATM   24  C   UNL     1       3.348   6.750   0.000  1.00  0.00     0.050 A 
ENDBRANCH   2  19
TORSDOF 1
