REMARK  2 active torsions:
REMARK  status: ('A' for Active; 'I' for Inactive)
REMARK    1  A    between atoms: C_2  and  C_17 
REMARK    2  A    between atoms: C_11  and  C_12 
ROOT
HETATM    1  C   UNL     1       4.647   5.250   0.000  1.00  0.00     0.117 A 
HETATM    2  C   UNL     1       4.647   3.750   0.000  1.00  0.00     0.035 A 
HETATM    3  C   UNL     1       5.946   6.000   0.000  1.00  0.00     0.198 A 
HETATM    4  N   UNL     1       5.946   3.000   0.000  1.00  0.00    -0.345 N 
HETATM    5  O   UNL     1       5.946   7.500   0.000  1.00  0.00    -0.174 OA
HETATM    6  H   UNL     1       5.946   1.500   0.000  1.00  0.00     0.167 HD
HETATM    7  C   UNL     1       7.245   3.750   0.000  1.00  0.00     0.126 A 
HETATM    8  N   UNL     1       7.245   5.250   0.000  1.00  0.00    -0.197 N 
HETATM    9  C   UNL     1       8.672   3.287   0.000  1.00  0.00     0.113 A 
HETATM   10  N   UNL     1       8.672   5.713   0.000  1.00  0.00    -0.165 NA
HETATM   11  C   UNL     1       9.553   4.500   0.000  1.00  0.00     0.105 A 
ENDROOT
BRANCH   2  12
HETATM   12  C   UNL     1       3.348   3.000   0.000  1.00  0.00    -0.032 A 
HETATM   13  C   UNL     1       3.348   1.500   0.000  1.00  0.00     0.023 A 
HETATM   14  C   UNL     1       2.049   0.750   0.000  1.00  0.00     0.004 A 
HETATM   15  C   UNL     1       0.750   1.500   0.000  1.00  0.00     0.001 A 
HETATM   16  C   UNL     1       0.750   3.000   0.000  1.00  0.00     0.004 A 
HETATM   17  C   UNL     1       2.049   3.750   0.000  1.00  0.00     0.023 A 
ENDBRANCH   2  12
BRANCH  11  18
HETATM   18  C   UNL     1      11.053   4.500   0.000  1.00  0.00     0.087 A 
HETATM   19  O   UNL     1      11.935   5.713   0.000  1.00  0.00    -0.334 OA
HETATM   20  C   UNL     1      13.362   5.250   0.000  1.00  0.00     0.149 A 
HETATM   21  C   UNL     1      13.362   3.750   0.000  1.00  0.00     0.040 A 
HETATM   22  C   UNL     1      11.935   3.287   0.000  1.00  0.00     0.055 A 
ENDBRANCH  11  18
TORSDOF 2
