REMARK  1 active torsions:
REMARK  status: ('A' for Active; 'I' for Inactive)
REMARK    1  A    between atoms: C_4  and  C_8 
ROOT
HETATM    1  N   UNL     1      -7.520   1.976   0.000  1.00  0.00    -0.255 NA
HETATM    2  C   UNL     1      -7.520   0.475   0.000  1.00  0.00     0.057 A 
HETATM    3  C   UNL     1      -8.819  -0.275   0.000  1.00  0.00     0.099 A 
HETATM    4  C   UNL     1     -10.118   0.475   0.000  1.00  0.00     0.112 A 
HETATM    5  C   UNL     1     -10.118   1.976   0.000  1.00  0.00     0.013 A 
HETATM    6  C   UNL     1      -8.819   4.226   0.000  1.00  0.00     0.046 A 
HETATM    7  C   UNL     1     -10.118   4.976   0.000  1.00  0.00     0.007 A 
HETATM    8  C   UNL     1      -8.819   2.725   0.000  1.00  0.00     0.056 A 
HETATM    9  C   UNL     1     -11.417   4.226   0.000  1.00  0.00     0.005 A 
HETATM   10  C   UNL     1     -11.417   2.725   0.000  1.00  0.00     0.029 A 
HETATM   11  O   UNL     1     -11.417  -0.275   0.000  1.00  0.00    -0.195 OA
ENDROOT
BRANCH   2  12
HETATM   12  C   UNL     1      -6.221  -0.275   0.000  1.00  0.00    -0.030 A 
HETATM   13  C   UNL     1      -4.922   0.475   0.000  1.00  0.00     0.029 A 
HETATM   14  C   UNL     1      -3.623  -0.275   0.000  1.00  0.00     0.038 A 
HETATM   15  C   UNL     1      -3.623  -1.774   0.000  1.00  0.00     0.014 A 
HETATM   16 CL   UNL     1      -2.324  -2.525   0.000  1.00  0.00    -0.092 Cl
HETATM   17  C   UNL     1      -4.922  -2.525   0.000  1.00  0.00     0.038 A 
HETATM   18  C   UNL     1      -6.221  -1.774   0.000  1.00  0.00     0.029 A 
ENDBRANCH   2  12
TORSDOF 1
