REMARK  3 active torsions:
REMARK  status: ('A' for Active; 'I' for Inactive)
REMARK    1  A    between atoms: C_3  and  O_13 
REMARK    2  A    between atoms: O_13  and  C_14 
REMARK    3  A    between atoms: C_14  and  C_15 
ROOT
HETATM    1  C   UNL     1      -7.245  -2.250   0.000  1.00  0.00     0.053 A 
HETATM    2  C   UNL     1      -8.544  -3.000   0.000  1.00  0.00    -0.024 A 
HETATM    3  C   UNL     1      -5.946  -3.000   0.000  1.00  0.00     0.124 A 
HETATM    4  C   UNL     1      -5.946  -4.500   0.000  1.00  0.00     0.053 A 
HETATM    5  C   UNL     1      -8.544  -4.500   0.000  1.00  0.00     0.068 A 
HETATM    6  C   UNL     1      -7.245  -5.250   0.000  1.00  0.00    -0.024 A 
HETATM    7  N   UNL     1      -9.843  -5.250   0.000  1.00  0.00    -0.225 NA
HETATM    8  C   UNL     1     -11.142  -4.500   0.000  1.00  0.00     0.190 A 
HETATM    9  O   UNL     1     -12.441  -5.250   0.000  1.00  0.00    -0.174 OA
HETATM   10  C   UNL     1     -11.142  -3.000   0.000  1.00  0.00     0.079 A 
HETATM   11  C   UNL     1      -9.843  -2.250   0.000  1.00  0.00     0.032 A 
HETATM   12  C   UNL     1      -7.245  -6.750   0.000  1.00  0.00     0.028 C 
ENDROOT
BRANCH   3  13
HETATM   13  O   UNL     1      -4.647  -2.250   0.000  1.00  0.00    -0.346 OA
BRANCH  13  14
HETATM   14  C   UNL     1      -3.348  -3.000   0.000  1.00  0.00     0.240 C 
BRANCH  14  15
HETATM   15  C   UNL     1      -2.049  -2.250   0.000  1.00  0.00     0.217 C 
HETATM   16  O   UNL     1      -0.750  -3.000   0.000  1.00  0.00    -0.646 OA
HETATM   17  O   UNL     1      -2.049  -0.750   0.000  1.00  0.00    -0.646 OA
ENDBRANCH  14  15
ENDBRANCH  13  14
ENDBRANCH   3  13
TORSDOF 3
