REMARK  3 active torsions:
REMARK  status: ('A' for Active; 'I' for Inactive)
REMARK    1  A    between atoms: C_4  and  N_24 
REMARK    2  A    between atoms: C_7  and  C_10 
REMARK    3  A    between atoms: N_16  and  C_17 
ROOT
HETATM    1  C   UNL     1      -6.770  -6.274   0.000  1.00  0.00     0.023 A 
HETATM    2  C   UNL     1      -6.770  -7.774   0.000  1.00  0.00     0.109 A 
HETATM    3  N   UNL     1      -5.471  -8.524   0.000  1.00  0.00    -0.300 N 
HETATM    4  C   UNL     1      -5.471 -10.024   0.000  1.00  0.00     0.166 A 
HETATM    5  C   UNL     1      -5.471  -5.524   0.000  1.00  0.00     0.010 A 
HETATM    6  N   UNL     1      -4.172 -10.774   0.000  1.00  0.00    -0.088 NA
HETATM    7  C   UNL     1      -4.172  -7.774   0.000  1.00  0.00     0.131 A 
HETATM    8  C   UNL     1      -4.172  -6.274   0.000  1.00  0.00     0.065 A 
HETATM    9  O   UNL     1      -2.873 -10.024   0.000  1.00  0.00    -0.120 OA
HETATM   10  N   UNL     1      -2.873  -8.524   0.000  1.00  0.00    -0.167 N 
HETATM   11  C   UNL     1      -8.069  -5.524   0.000  1.00  0.00     0.002 C 
ENDROOT
BRANCH   4  12
HETATM   12  C   UNL     1      -6.770 -10.774   0.000  1.00  0.00    -0.002 A 
HETATM   13  C   UNL     1      -8.069 -10.024   0.000  1.00  0.00     0.026 A 
HETATM   14  C   UNL     1      -9.368 -10.774   0.000  1.00  0.00     0.011 A 
HETATM   15  C   UNL     1      -9.368 -12.274   0.000  1.00  0.00     0.046 A 
HETATM   16  C   UNL     1      -8.069 -13.024   0.000  1.00  0.00     0.086 A 
HETATM   17  C   UNL     1      -6.770 -12.274   0.000  1.00  0.00     0.071 A 
BRANCH  16  18
HETATM   18  N   UNL     1      -8.069 -14.524   0.000  1.00  0.00    -0.122 N 
HETATM   19  O   UNL     1      -9.368 -15.274   0.000  1.00  0.00    -0.532 OA
HETATM   20  O   UNL     1      -6.770 -15.274   0.000  1.00  0.00    -0.532 OA
ENDBRANCH  16  18
ENDBRANCH   4  12
BRANCH  10  21
HETATM   21  C   UNL     1      -1.574  -7.774   0.000  1.00  0.00     0.144 A 
HETATM   22  C   UNL     1      -1.574  -6.274   0.000  1.00  0.00     0.066 A 
HETATM   23  C   UNL     1      -0.275  -5.524   0.000  1.00  0.00     0.010 A 
HETATM   24  C   UNL     1       1.024  -6.274   0.000  1.00  0.00     0.025 A 
HETATM   25  C   UNL     1       1.024  -7.774   0.000  1.00  0.00     0.127 A 
HETATM   26  C   UNL     1       2.324  -5.524   0.000  1.00  0.00     0.002 C 
HETATM   27  N   UNL     1      -0.275  -8.524   0.000  1.00  0.00    -0.256 NA
ENDBRANCH  10  21
TORSDOF 3
