REMARK  4 active torsions:
REMARK  status: ('A' for Active; 'I' for Inactive)
REMARK    1  A    between atoms: O_3  and  C_7 
REMARK    2  A    between atoms: O_3  and  S_18 
REMARK    3  A    between atoms: C_4  and  N_21 
REMARK    4  A    between atoms: C_5  and  S_18 
ROOT
HETATM    1  S   UNL     1      -2.252  -5.215   0.000  1.00  0.00     0.322 S 
HETATM    2  O   UNL     1      -3.002  -3.916   0.000  1.00  0.00    -0.191 OA
HETATM    3  O   UNL     1      -1.502  -6.514   0.000  1.00  0.00    -0.191 OA
ENDROOT
BRANCH   1   4
HETATM    4  O   UNL     1      -3.551  -5.965   0.000  1.00  0.00    -0.231 OA
BRANCH   4   5
HETATM    5  C   UNL     1      -3.551  -7.465   0.000  1.00  0.00     0.086 A 
HETATM    6  C   UNL     1      -2.252  -8.215   0.000  1.00  0.00     0.052 A 
HETATM    7  C   UNL     1      -2.252  -9.715   0.000  1.00  0.00     0.011 A 
HETATM    8  C   UNL     1      -3.551 -10.465   0.000  1.00  0.00     0.022 A 
HETATM    9  C   UNL     1      -4.851  -9.715   0.000  1.00  0.00    -0.047 A 
HETATM   10  C   UNL     1      -4.851  -8.215   0.000  1.00  0.00    -0.011 A 
HETATM   11  C   UNL     1      -6.150 -10.465   0.000  1.00  0.00     0.022 A 
HETATM   12  C   UNL     1      -6.150  -7.465   0.000  1.00  0.00     0.027 A 
HETATM   13  C   UNL     1      -7.449  -8.215   0.000  1.00  0.00     0.005 A 
HETATM   14  C   UNL     1      -7.449  -9.715   0.000  1.00  0.00     0.005 A 
ENDBRANCH   4   5
ENDBRANCH   1   4
BRANCH   1  15
HETATM   15  C   UNL     1      -0.954  -4.465   0.000  1.00  0.00     0.210 A 
HETATM   16  N   UNL     1      -0.797  -2.973   0.000  1.00  0.00    -0.313 N 
HETATM   17  C   UNL     1       0.670  -2.661   0.000  1.00  0.00     0.233 A 
HETATM   18  C   UNL     1      -1.911  -1.970   0.000  1.00  0.00     0.128 C 
HETATM   19  N   UNL     1       1.421  -3.960   0.000  1.00  0.00    -0.222 NA
HETATM   20  C   UNL     1       0.417  -5.075   0.000  1.00  0.00     0.234 A 
BRANCH  20  21
HETATM   21  N   UNL     1       0.729  -6.542   0.000  1.00  0.00    -0.093 N 
HETATM   22  O   UNL     1      -0.386  -7.546   0.000  1.00  0.00    -0.530 OA
HETATM   23  O   UNL     1       2.155  -7.006   0.000  1.00  0.00    -0.530 OA
ENDBRANCH  20  21
ENDBRANCH   1  15
TORSDOF 4
