REMARK  1 active torsions:
REMARK  status: ('A' for Active; 'I' for Inactive)
REMARK    1  A    between atoms: C_22  and  C_23 
ROOT
HETATM    1  N   UNL     1      -0.375   6.649   0.000  1.00  0.00    -0.200 NA
HETATM    2  C   UNL     1      -0.375   5.149   0.000  1.00  0.00     0.238 A 
HETATM    3  C   UNL     1       0.924   7.399   0.000  1.00  0.00     0.154 A 
HETATM    4  N   UNL     1       0.924   4.399   0.000  1.00  0.00    -0.219 NA
HETATM    5  C   UNL     1       2.223   6.649   0.000  1.00  0.00     0.041 A 
HETATM    6  C   UNL     1       2.223   5.149   0.000  1.00  0.00     0.064 A 
HETATM    7  C   UNL     1       3.522   7.399   0.000  1.00  0.00    -0.021 A 
HETATM    8  C   UNL     1       3.522   8.899   0.000  1.00  0.00     0.033 A 
HETATM    9  C   UNL     1       4.821   6.649   0.000  1.00  0.00    -0.004 A 
HETATM   10  C   UNL     1       4.821   9.649   0.000  1.00  0.00     0.050 A 
HETATM   11  C   UNL     1       6.120   8.899   0.000  1.00  0.00     0.059 A 
HETATM   12  C   UNL     1       6.120   7.399   0.000  1.00  0.00     0.123 A 
HETATM   13  N   UNL     1       7.419   9.649   0.000  1.00  0.00    -0.308 N 
HETATM   14  N   UNL     1      -1.674   4.399   0.000  1.00  0.00    -0.060 NA
HETATM   15  N   UNL     1       0.924   8.899   0.000  1.00  0.00    -0.080 NA
HETATM   16  C   UNL     1       3.522   4.399   0.000  1.00  0.00     0.051 A 
HETATM   17  C   UNL     1       4.821   5.149   0.000  1.00  0.00     0.034 A 
HETATM   18  N   UNL     1       7.419   6.649   0.000  1.00  0.00    -0.082 N 
HETATM   19  O   UNL     1       8.718   7.399   0.000  1.00  0.00    -0.189 OA
HETATM   20  O   UNL     1       7.419   5.149   0.000  1.00  0.00    -0.056 OA
HETATM   21  C   UNL     1       7.419  11.149   0.000  1.00  0.00     0.132 C 
HETATM   22  C   UNL     1       8.718   8.899   0.000  1.00  0.00     0.181 A 
ENDROOT
BRANCH  22  23
HETATM   23  C   UNL     1      10.017   9.649   0.000  1.00  0.00    -0.003 A 
HETATM   24  C   UNL     1      10.017  11.149   0.000  1.00  0.00     0.026 A 
HETATM   25  C   UNL     1      11.316  11.899   0.000  1.00  0.00     0.004 A 
HETATM   26  C   UNL     1      12.615  11.149   0.000  1.00  0.00     0.001 A 
HETATM   27  C   UNL     1      12.615   9.649   0.000  1.00  0.00     0.004 A 
HETATM   28  C   UNL     1      11.316   8.899   0.000  1.00  0.00     0.026 A 
ENDBRANCH  22  23
TORSDOF 1
