REMARK  0 active torsions:
REMARK  status: ('A' for Active; 'I' for Inactive)
ROOT
HETATM    1  C   UNL     1       1.457   1.024   0.000  1.00  0.00     0.348 A 
HETATM    2  S   UNL     1       2.339   2.238   0.000  1.00  0.00    -0.102 SA
HETATM    3  N   UNL     1       2.339  -0.189   0.000  1.00  0.00     0.348 N 
HETATM    4  C   UNL     1       3.766   1.774   0.000  1.00  0.00     0.082 A 
HETATM    5  C   UNL     1       3.766   0.274   0.000  1.00  0.00     0.243 A 
HETATM    6  C   UNL     1       5.065  -0.476   0.000  1.00  0.00     0.070 A 
HETATM    7  C   UNL     1       5.065   2.524   0.000  1.00  0.00     0.019 A 
HETATM    8  C   UNL     1       6.364   1.774   0.000  1.00  0.00     0.040 A 
HETATM    9  C   UNL     1       5.377  -1.943   0.000  1.00  0.00     0.074 A 
HETATM   10  C   UNL     1       6.364   0.274   0.000  1.00  0.00     0.018 A 
HETATM   11  C   UNL     1       6.868  -2.100   0.000  1.00  0.00     0.171 A 
HETATM   12  N   UNL     1       7.478  -0.730   0.000  1.00  0.00    -0.316 N 
HETATM   13  O   UNL     1       7.618  -3.399   0.000  1.00  0.00    -0.176 OA
HETATM   14  C   UNL     1       3.851  -1.357   0.000  1.00  0.00     0.048 A 
HETATM   15  C   UNL     1       8.946  -0.418   0.000  1.00  0.00     0.132 C 
ENDROOT
TORSDOF 0
