REMARK  2 active torsions:
REMARK  status: ('A' for Active; 'I' for Inactive)
REMARK    1  A    between atoms: C_8  and  C_20 
REMARK    2  A    between atoms: C_10  and  C_23 
ROOT
HETATM    1  H   UNL     1       7.245  -5.989   0.000  1.00  0.00     0.330 HD
HETATM    2  N   UNL     1       7.245  -7.489   0.000  1.00  0.00    -0.357 N 
HETATM    3  C   UNL     1       8.544  -8.239   0.000  1.00  0.00     0.099 A 
HETATM    4  C   UNL     1       8.544  -9.739   0.000  1.00  0.00     0.024 A 
HETATM    5  C   UNL     1       7.245 -10.489   0.000  1.00  0.00     0.008 A 
HETATM    6  C   UNL     1       5.946  -9.739   0.000  1.00  0.00     0.043 A 
HETATM    7  C   UNL     1       5.946  -8.239   0.000  1.00  0.00     0.029 A 
HETATM    8  C   UNL     1       4.647  -5.989   0.000  1.00  0.00     0.109 A 
HETATM    9  C   UNL     1       3.147  -5.989   0.000  1.00  0.00     0.034 C 
HETATM   10  O   UNL     1       6.147  -5.989   0.000  1.00  0.00    -0.367 OA
HETATM   11  C   UNL     1       4.647  -7.489   0.000  1.00  0.00     0.005 A 
ENDROOT
BRANCH   8  12
HETATM   12  C   UNL     1       4.647  -4.489   0.000  1.00  0.00     0.029 A 
HETATM   13  C   UNL     1       5.946  -3.739   0.000  1.00  0.00     0.003 A 
HETATM   14  C   UNL     1       5.946  -2.239   0.000  1.00  0.00     0.000 A 
HETATM   15  C   UNL     1       4.647  -1.489   0.000  1.00  0.00     0.000 A 
HETATM   16  C   UNL     1       3.348  -2.239   0.000  1.00  0.00     0.000 A 
HETATM   17  C   UNL     1       3.348  -3.739   0.000  1.00  0.00     0.003 A 
ENDBRANCH   8  12
BRANCH  11  18
HETATM   18  C   UNL     1       3.348  -8.239   0.000  1.00  0.00    -0.045 A 
HETATM   19  C   UNL     1       2.049  -7.489   0.000  1.00  0.00     0.022 A 
HETATM   20  C   UNL     1       0.750  -8.239   0.000  1.00  0.00     0.004 A 
HETATM   21  C   UNL     1       0.750  -9.739   0.000  1.00  0.00     0.001 A 
HETATM   22  C   UNL     1       2.049 -10.489   0.000  1.00  0.00     0.004 A 
HETATM   23  C   UNL     1       3.348  -9.739   0.000  1.00  0.00     0.022 A 
ENDBRANCH  11  18
TORSDOF 2
