REMARK  5 active torsions:
REMARK  status: ('A' for Active; 'I' for Inactive)
REMARK    1  A    between atoms: C_9  and  C_10 
REMARK    2  A    between atoms: C_10  and  C_11 
REMARK    3  A    between atoms: C_11  and  C_13 
REMARK    4  A    between atoms: C_13  and  O_15 
REMARK    5  A    between atoms: O_15  and  C_16 
ROOT
HETATM    1  S   UNL     1      -5.656   2.238   0.000  1.00  0.00    -0.093 SA
HETATM    2  N   UNL     1      -5.656  -0.189   0.000  1.00  0.00    -0.265 NA
HETATM    3  C   UNL     1      -8.382   2.525   0.000  1.00  0.00     0.034 A 
HETATM    4  C   UNL     1      -9.681   1.774   0.000  1.00  0.00     0.006 A 
HETATM    5  C   UNL     1      -7.083   1.774   0.000  1.00  0.00     0.018 A 
HETATM    6  C   UNL     1      -7.083   0.275   0.000  1.00  0.00     0.056 A 
HETATM    7  C   UNL     1      -9.681   0.275   0.000  1.00  0.00     0.007 A 
HETATM    8  C   UNL     1      -8.382  -0.475   0.000  1.00  0.00     0.046 A 
HETATM    9  C   UNL     1      -4.774   1.024   0.000  1.00  0.00     0.161 A 
ENDROOT
BRANCH   9  10
HETATM   10  C   UNL     1      -3.275   1.024   0.000  1.00  0.00     0.094 C 
BRANCH  10  11
HETATM   11  C   UNL     1      -2.525  -0.275   0.000  1.00  0.00     0.160 C 
HETATM   12  O   UNL     1      -1.024  -0.275   0.000  1.00  0.00    -0.190 OA
BRANCH  11  13
HETATM   13  C   UNL     1      -3.275  -1.574   0.000  1.00  0.00     0.250 C 
HETATM   14  O   UNL     1      -2.525  -2.873   0.000  1.00  0.00    -0.161 OA
BRANCH  13  15
HETATM   15  O   UNL     1      -4.774  -1.574   0.000  1.00  0.00    -0.308 OA
BRANCH  15  16
HETATM   16  C   UNL     1      -5.524  -2.873   0.000  1.00  0.00     0.151 C 
HETATM   17  C   UNL     1      -4.774  -4.172   0.000  1.00  0.00     0.035 C 
ENDBRANCH  15  16
ENDBRANCH  13  15
ENDBRANCH  11  13
ENDBRANCH  10  11
ENDBRANCH   9  10
TORSDOF 5
