REMARK  1 active torsions:
REMARK  status: ('A' for Active; 'I' for Inactive)
REMARK    1  A    between atoms: C_16  and  C_17 
ROOT
HETATM    1  O   UNL     1      -9.281  -3.527   0.000  1.00  0.00    -0.150 OA
HETATM    2  H   UNL     1      -6.455  -1.895   0.000  1.00  0.00     0.164 HD
HETATM    3  N   UNL     1      -6.612  -3.387   0.000  1.00  0.00    -0.333 N 
HETATM    4  O   UNL     1      -5.357  -7.060   0.000  1.00  0.00    -0.313 OA
HETATM    5  C   UNL     1      -2.899  -4.391   0.000  1.00  0.00    -0.021 A 
HETATM    6  C   UNL     1      -4.198  -5.141   0.000  1.00  0.00     0.015 A 
HETATM    7  C   UNL     1      -1.600  -5.141   0.000  1.00  0.00     0.026 A 
HETATM    8  C   UNL     1      -1.600  -6.641   0.000  1.00  0.00     0.011 A 
HETATM    9  C   UNL     1      -4.198  -6.641   0.000  1.00  0.00     0.071 A 
HETATM   10  C   UNL     1      -5.497  -4.391   0.000  1.00  0.00     0.136 A 
HETATM   11  C   UNL     1      -6.107  -5.761   0.000  1.00  0.00     0.250 A 
HETATM   12  C   UNL     1      -2.899  -7.391   0.000  1.00  0.00     0.051 A 
HETATM   13  C   UNL     1      -7.911  -4.137   0.000  1.00  0.00     0.273 A 
HETATM   14  N   UNL     1      -7.599  -5.604   0.000  1.00  0.00    -0.201 NA
HETATM   15  C   UNL     1      -4.615  -3.177   0.000  1.00  0.00     0.061 A 
HETATM   16  C   UNL     1      -3.123  -3.334   0.000  1.00  0.00     0.040 A 
ENDROOT
BRANCH  16  17
HETATM   17  C   UNL     1      -2.242  -2.120   0.000  1.00  0.00     0.206 C 
HETATM   18  O   UNL     1      -0.750  -2.277   0.000  1.00  0.00    -0.644 OA
HETATM   19  O   UNL     1      -2.852  -0.750   0.000  1.00  0.00    -0.644 OA
ENDBRANCH  16  17
TORSDOF 1
