REMARK  3 active torsions:
REMARK  status: ('A' for Active; 'I' for Inactive)
REMARK    1  A    between atoms: C_7  and  C_18 
REMARK    2  A    between atoms: C_15  and  S_17 
REMARK    3  A    between atoms: S_17  and  C_18 
ROOT
HETATM    1  N   UNL     1      -1.157   2.868   0.000  1.00  0.00    -0.264 NA
HETATM    2  N   UNL     1       1.217   1.811   0.000  1.00  0.00    -0.225 NA
HETATM    3  H   UNL     1       1.363   7.035   0.000  1.00  0.00     0.168 HD
HETATM    4  N   UNL     1       1.827   5.609   0.000  1.00  0.00    -0.333 N 
HETATM    5  N   UNL     1       3.254   3.645   0.000  1.00  0.00    -0.203 NA
HETATM    6  C   UNL     1      -0.546   4.238   0.000  1.00  0.00     0.168 A 
HETATM    7  C   UNL     1       0.945   4.395   0.000  1.00  0.00     0.096 A 
HETATM    8  C   UNL     1       1.827   3.182   0.000  1.00  0.00     0.175 A 
HETATM    9  C   UNL     1       3.254   5.145   0.000  1.00  0.00     0.169 A 
HETATM   10  C   UNL     1      -0.275   1.654   0.000  1.00  0.00     0.248 A 
ENDROOT
BRANCH   9  11
HETATM   11  S   UNL     1       4.467   6.027   0.000  1.00  0.00    -0.077 SA
BRANCH  11  12
HETATM   12  C   UNL     1       4.310   7.519   0.000  1.00  0.00     0.065 C 
BRANCH  12  13
HETATM   13  C   UNL     1       5.524   8.400   0.000  1.00  0.00     0.011 A 
HETATM   14  C   UNL     1       5.367   9.892   0.000  1.00  0.00     0.001 A 
HETATM   15  C   UNL     1       6.581  10.774   0.000  1.00  0.00     0.000 A 
HETATM   16  C   UNL     1       7.951  10.164   0.000  1.00  0.00     0.000 A 
HETATM   17  C   UNL     1       8.108   8.672   0.000  1.00  0.00     0.000 A 
HETATM   18  C   UNL     1       6.894   7.790   0.000  1.00  0.00     0.001 A 
ENDBRANCH  12  13
ENDBRANCH  11  12
ENDBRANCH   9  11
TORSDOF 3
