REMARK  2 active torsions:
REMARK  status: ('A' for Active; 'I' for Inactive)
REMARK    1  A    between atoms: N_3  and  C_8 
REMARK    2  A    between atoms: C_8  and  C_9 
ROOT
HETATM    1  H   UNL     1      -0.375   2.150   0.000  1.00  0.00     0.155 HD
HETATM    2  N   UNL     1       0.924   2.900   0.000  1.00  0.00    -0.390 N 
HETATM    3  N   UNL     1       3.522   4.399   0.000  1.00  0.00    -0.364 N 
HETATM    4  C   UNL     1       2.223   5.149   0.000  1.00  0.00     0.121 A 
HETATM    5  C   UNL     1       0.924   4.399   0.000  1.00  0.00     0.118 A 
HETATM    6  C   UNL     1       3.522   2.900   0.000  1.00  0.00     0.121 A 
HETATM    7  C   UNL     1       2.223   2.150   0.000  1.00  0.00     0.118 A 
ENDROOT
BRANCH   3   8
HETATM    8  C   UNL     1       4.821   5.149   0.000  1.00  0.00     0.139 C 
BRANCH   8   9
HETATM    9  C   UNL     1       6.120   4.399   0.000  1.00  0.00     0.362 C 
HETATM   10  N   UNL     1       7.419   5.149   0.000  1.00  0.00     0.620 N 
ENDBRANCH   8   9
ENDBRANCH   3   8
TORSDOF 2
