REMARK  1 active torsions:
REMARK  status: ('A' for Active; 'I' for Inactive)
REMARK    1  A    between atoms: C_8  and  C_13 
ROOT
HETATM    1  O   UNL     1       4.821   6.649   0.000  1.00  0.00     0.000 OA
HETATM    2  C   UNL     1       4.821   8.149   0.000  1.00  0.00     0.000 A 
HETATM    3  C   UNL     1       6.120   8.899   0.000  1.00  0.00     0.000 A 
HETATM    4  C   UNL     1       7.419   8.149   0.000  1.00  0.00     0.004 A 
HETATM    5  C   UNL     1       7.419   6.649   0.000  1.00  0.00     0.024 A 
HETATM    6  C   UNL     1       6.120   5.899   0.000  1.00  0.00    -0.020 A 
HETATM    7  C   UNL     1       3.522   4.399   0.000  1.00  0.00     0.247 A 
HETATM    8  O   UNL     1       3.522   5.899   0.000  1.00  0.00    -0.162 OA
HETATM    9  O   UNL     1       4.821   3.650   0.000  1.00  0.00    -0.303 OA
HETATM   10  C   UNL     1       6.120   4.399   0.000  1.00  0.00     0.173 A 
ENDROOT
BRANCH   7  11
HETATM   11  C   UNL     1       2.223   3.650   0.000  1.00  0.00     0.120 A 
HETATM   12  O   UNL     1       0.924   4.399   0.000  1.00  0.00    -0.331 OA
HETATM   13  C   UNL     1      -0.375   3.650   0.000  1.00  0.00     0.149 A 
HETATM   14  C   UNL     1      -0.375   2.150   0.000  1.00  0.00     0.033 A 
HETATM   15  C   UNL     1       0.924   1.399   0.000  1.00  0.00     0.009 A 
HETATM   16  C   UNL     1       2.223   2.150   0.000  1.00  0.00     0.055 A 
ENDBRANCH   7  11
TORSDOF 1
