REMARK  4 active torsions:
REMARK  status: ('A' for Active; 'I' for Inactive)
REMARK    1  A    between atoms: O_1  and  C_4 
REMARK    2  A    between atoms: O_1  and  C_9 
REMARK    3  A    between atoms: C_5  and  C_17 
REMARK    4  A    between atoms: C_12  and  C_14 
ROOT
HETATM    1  O   UNL     1       4.272  -5.899   0.000  1.00  0.00    -0.359 OA
ENDROOT
BRANCH   1   2
HETATM    2  C   UNL     1       5.571  -6.649   0.000  1.00  0.00     0.116 A 
HETATM    3  C   UNL     1       6.870  -5.899   0.000  1.00  0.00     0.034 A 
HETATM    4  C   UNL     1       8.169  -6.649   0.000  1.00  0.00     0.028 A 
HETATM    5  C   UNL     1       8.169  -8.149   0.000  1.00  0.00    -0.005 A 
HETATM    6  C   UNL     1       6.870  -8.899   0.000  1.00  0.00     0.028 A 
HETATM    7  C   UNL     1       5.571  -8.149   0.000  1.00  0.00     0.034 A 
BRANCH   5   8
HETATM    8  C   UNL     1       9.468  -8.899   0.000  1.00  0.00     0.192 C 
HETATM    9  O   UNL     1      10.767  -8.149   0.000  1.00  0.00    -0.175 OA
HETATM   10  N   UNL     1       9.468 -10.399   0.000  1.00  0.00    -0.071 NA
ENDBRANCH   5   8
ENDBRANCH   1   2
BRANCH   1  11
HETATM   11  C   UNL     1       4.272  -4.399   0.000  1.00  0.00     0.116 A 
HETATM   12  C   UNL     1       5.571  -3.650   0.000  1.00  0.00     0.034 A 
HETATM   13  C   UNL     1       5.571  -2.150   0.000  1.00  0.00     0.028 A 
HETATM   14  C   UNL     1       4.272  -1.399   0.000  1.00  0.00    -0.005 A 
HETATM   15  C   UNL     1       2.973  -2.150   0.000  1.00  0.00     0.028 A 
HETATM   16  C   UNL     1       2.973  -3.650   0.000  1.00  0.00     0.034 A 
BRANCH  14  17
HETATM   17  C   UNL     1       4.272   0.101   0.000  1.00  0.00     0.192 C 
HETATM   18  O   UNL     1       5.571   0.851   0.000  1.00  0.00    -0.175 OA
HETATM   19  N   UNL     1       2.973   0.851   0.000  1.00  0.00    -0.071 NA
ENDBRANCH  14  17
ENDBRANCH   1  11
TORSDOF 4
