REMARK  3 active torsions:
REMARK  status: ('A' for Active; 'I' for Inactive)
REMARK    1  A    between atoms: N_6  and  C_13 
REMARK    2  A    between atoms: C_13  and  C_14 
REMARK    3  A    between atoms: C_14  and  C_15 
ROOT
HETATM    1  N   UNL     1     -10.594   2.250   0.000  1.00  0.00    -0.203 NA
HETATM    2  N   UNL     1      -9.295   0.000   0.000  1.00  0.00    -0.313 N 
HETATM    3  S   UNL     1      -9.295   4.500   0.000  1.00  0.00    -0.056 SA
HETATM    4  H   UNL     1      -9.295  -1.500   0.000  1.00  0.00     0.170 HD
HETATM    5  N   UNL     1      -6.569   2.714   0.000  1.00  0.00    -0.240 NA
HETATM    6  N   UNL     1      -6.569   0.287   0.000  1.00  0.00    -0.313 N 
HETATM    7  C   UNL     1      -9.295   3.000   0.000  1.00  0.00     0.158 A 
HETATM    8  C   UNL     1      -7.996   2.250   0.000  1.00  0.00     0.138 A 
HETATM    9  C   UNL     1      -7.996   0.750   0.000  1.00  0.00     0.141 A 
HETATM   10  C   UNL     1      -5.688   1.500   0.000  1.00  0.00     0.232 A 
HETATM   11  C   UNL     1     -10.594   0.750   0.000  1.00  0.00     0.217 A 
HETATM   12  N   UNL     1     -11.893   0.000   0.000  1.00  0.00    -0.061 NA
ENDROOT
BRANCH   6  13
HETATM   13  C   UNL     1      -6.106  -1.140   0.000  1.00  0.00     0.105 C 
BRANCH  13  14
HETATM   14  C   UNL     1      -4.638  -1.452   0.000  1.00  0.00     0.024 C 
BRANCH  14  15
HETATM   15  C   UNL     1      -4.175  -2.878   0.000  1.00  0.00     0.002 C 
HETATM   16  C   UNL     1      -2.708  -3.190   0.000  1.00  0.00     0.000 C 
ENDBRANCH  14  15
ENDBRANCH  13  14
ENDBRANCH   6  13
TORSDOF 3
