REMARK  1 active torsions:
REMARK  status: ('A' for Active; 'I' for Inactive)
REMARK    1  A    between atoms: C_6  and  N_16 
ROOT
HETATM    1  C   UNL     1       6.348  -0.561   0.000  1.00  0.00     0.146 A 
HETATM    2  C   UNL     1       3.623  -0.275   0.000  1.00  0.00     0.111 A 
HETATM    3  C   UNL     1       4.922  -1.024   0.000  1.00  0.00     0.058 A 
HETATM    4  C   UNL     1       4.922  -2.525   0.000  1.00  0.00     0.155 A 
HETATM    5  C   UNL     1       2.324  -2.525   0.000  1.00  0.00     0.230 A 
HETATM    6  H   UNL     1       1.024  -0.275   0.000  1.00  0.00     0.163 HD
HETATM    7  N   UNL     1       2.324  -1.024   0.000  1.00  0.00    -0.345 N 
HETATM    8  S   UNL     1       3.623   1.226   0.000  1.00  0.00    -0.060 SA
HETATM    9  N   UNL     1       3.623  -3.275   0.000  1.00  0.00    -0.228 NA
HETATM   10  N   UNL     1       6.348  -2.988   0.000  1.00  0.00    -0.247 N 
HETATM   11  N   UNL     1       7.230  -1.774   0.000  1.00  0.00    -0.112 NA
ENDROOT
BRANCH  10  12
HETATM   12  C   UNL     1       6.812  -4.415   0.000  1.00  0.00     0.034 A 
HETATM   13  C   UNL     1       5.808  -5.529   0.000  1.00  0.00     0.041 A 
HETATM   14  C   UNL     1       6.272  -6.956   0.000  1.00  0.00     0.006 A 
HETATM   15  C   UNL     1       7.739  -7.268   0.000  1.00  0.00     0.001 A 
HETATM   16  C   UNL     1       8.742  -6.153   0.000  1.00  0.00     0.006 A 
HETATM   17  C   UNL     1       8.279  -4.726   0.000  1.00  0.00     0.041 A 
ENDBRANCH  10  12
TORSDOF 1
