REMARK  0 active torsions:
REMARK  status: ('A' for Active; 'I' for Inactive)
ROOT
HETATM    1  O   UNL     1       2.652   3.712   0.000  1.00  0.00    -0.189 OA
HETATM    2  N   UNL     1       1.487   9.559   0.000  1.00  0.00    -0.210 NA
HETATM    3  S   UNL     1       2.936   9.947   0.000  1.00  0.00     0.009 SA
HETATM    4  C   UNL     1       3.997   8.731   0.000  1.00  0.00     0.026 A 
HETATM    5  C   UNL     1       2.936   7.671   0.000  1.00  0.00     0.019 A 
HETATM    6  C   UNL     1       5.445   8.343   0.000  1.00  0.00     0.035 A 
HETATM    7  C   UNL     1       1.487   8.059   0.000  1.00  0.00     0.085 A 
HETATM    8  C   UNL     1       0.426   6.998   0.000  1.00  0.00    -0.002 A 
HETATM    9  C   UNL     1      -1.023   7.387   0.000  1.00  0.00     0.028 A 
HETATM   10  C   UNL     1      -2.083   6.326   0.000  1.00  0.00     0.010 A 
HETATM   11  C   UNL     1       5.834   6.894   0.000  1.00  0.00     0.010 A 
HETATM   12  C   UNL     1       3.324   6.222   0.000  1.00  0.00     0.005 A 
HETATM   13  C   UNL     1       0.815   5.549   0.000  1.00  0.00     0.023 A 
HETATM   14  C   UNL     1      -1.695   4.877   0.000  1.00  0.00     0.031 A 
HETATM   15  C   UNL     1       4.773   5.834   0.000  1.00  0.00     0.029 A 
HETATM   16  C   UNL     1       2.263   5.161   0.000  1.00  0.00     0.127 A 
HETATM   17  C   UNL     1      -0.246   4.489   0.000  1.00  0.00     0.031 A 
HETATM   18  C   UNL     1       0.142   3.040   0.000  1.00  0.00     0.257 A 
HETATM   19  O   UNL     1      -0.919   1.979   0.000  1.00  0.00    -0.161 OA
HETATM   20  O   UNL     1       1.591   2.652   0.000  1.00  0.00    -0.163 OA
ENDROOT
TORSDOF 0
