REMARK  3 active torsions:
REMARK  status: ('A' for Active; 'I' for Inactive)
REMARK    1  A    between atoms: C_5  and  C_8 
REMARK    2  A    between atoms: C_11  and  C_20 
REMARK    3  A    between atoms: C_16  and  O_18 
ROOT
HETATM    1  N   UNL     1      -7.520   1.976   0.000  1.00  0.00    -0.255 NA
HETATM    2  C   UNL     1      -7.520   0.475   0.000  1.00  0.00     0.055 A 
HETATM    3  C   UNL     1      -8.819  -0.275   0.000  1.00  0.00     0.077 A 
HETATM    4  C   UNL     1     -10.118   0.475   0.000  1.00  0.00     0.045 A 
HETATM    5  C   UNL     1     -10.118   1.976   0.000  1.00  0.00    -0.004 A 
HETATM    6  C   UNL     1      -8.819   4.226   0.000  1.00  0.00     0.048 A 
HETATM    7  C   UNL     1      -8.819   2.725   0.000  1.00  0.00     0.055 A 
HETATM    8  C   UNL     1     -10.118   4.976   0.000  1.00  0.00     0.036 A 
HETATM    9  C   UNL     1     -11.417   4.226   0.000  1.00  0.00     0.120 A 
HETATM   10  C   UNL     1     -11.417   2.725   0.000  1.00  0.00     0.057 A 
ENDROOT
BRANCH   2  11
HETATM   11  C   UNL     1      -6.221  -0.275   0.000  1.00  0.00    -0.030 A 
HETATM   12  C   UNL     1      -4.922   0.475   0.000  1.00  0.00     0.029 A 
HETATM   13  C   UNL     1      -3.623  -0.275   0.000  1.00  0.00     0.038 A 
HETATM   14  C   UNL     1      -3.623  -1.774   0.000  1.00  0.00     0.014 A 
HETATM   15 CL   UNL     1      -2.324  -2.525   0.000  1.00  0.00    -0.092 Cl
HETATM   16  C   UNL     1      -4.922  -2.525   0.000  1.00  0.00     0.038 A 
HETATM   17  C   UNL     1      -6.221  -1.774   0.000  1.00  0.00     0.029 A 
ENDBRANCH   2  11
BRANCH   4  18
HETATM   18  C   UNL     1     -11.417  -0.275   0.000  1.00  0.00     0.207 C 
HETATM   19  O   UNL     1     -12.716   0.475   0.000  1.00  0.00    -0.644 OA
HETATM   20  O   UNL     1     -11.417  -1.774   0.000  1.00  0.00    -0.644 OA
ENDBRANCH   4  18
BRANCH   9  21
HETATM   21  O   UNL     1     -12.716   4.976   0.000  1.00  0.00    -0.354 OA
HETATM   22  C   UNL     1     -12.716   6.476   0.000  1.00  0.00     0.174 C 
ENDBRANCH   9  21
TORSDOF 3
