REMARK  3 active torsions:
REMARK  status: ('A' for Active; 'I' for Inactive)
REMARK    1  A    between atoms: C_3  and  C_6 
REMARK    2  A    between atoms: C_10  and  C_19 
REMARK    3  A    between atoms: C_15  and  C_19 
ROOT
HETATM    1  C   UNL     1      -6.870   1.601   0.000  1.00  0.00    -0.051 A 
HETATM    2  C   UNL     1      -6.870   3.100   0.000  1.00  0.00     0.026 A 
HETATM    3  C   UNL     1      -8.169   3.850   0.000  1.00  0.00     0.028 A 
HETATM    4  C   UNL     1      -8.169   0.851   0.000  1.00  0.00     0.026 A 
HETATM    5  C   UNL     1      -9.468   3.100   0.000  1.00  0.00    -0.019 A 
HETATM    6  C   UNL     1      -9.468   1.601   0.000  1.00  0.00     0.028 A 
ENDROOT
BRANCH   5   7
HETATM    7  C   UNL     1     -10.767   3.850   0.000  1.00  0.00     0.115 C 
HETATM    8  O   UNL     1     -10.767   5.351   0.000  1.00  0.00    -0.192 OA
BRANCH   7   9
HETATM    9  C   UNL     1     -12.066   3.100   0.000  1.00  0.00    -0.019 A 
HETATM   10  C   UNL     1     -13.365   3.850   0.000  1.00  0.00     0.024 A 
HETATM   11  C   UNL     1     -14.664   3.100   0.000  1.00  0.00     0.004 A 
HETATM   12  C   UNL     1     -14.664   1.601   0.000  1.00  0.00     0.001 A 
HETATM   13  C   UNL     1     -13.365   0.851   0.000  1.00  0.00     0.004 A 
HETATM   14  C   UNL     1     -12.066   1.601   0.000  1.00  0.00     0.024 A 
ENDBRANCH   7   9
ENDBRANCH   5   7
BRANCH   1  15
HETATM   15  C   UNL     1      -5.571   0.851   0.000  1.00  0.00    -0.052 A 
HETATM   16  C   UNL     1      -4.272   1.601   0.000  1.00  0.00     0.024 A 
HETATM   17  C   UNL     1      -2.973   0.851   0.000  1.00  0.00     0.037 A 
HETATM   18  C   UNL     1      -2.973  -0.649   0.000  1.00  0.00     0.153 A 
HETATM   19  C   UNL     1      -4.272  -1.399   0.000  1.00  0.00     0.037 A 
HETATM   20  O   UNL     1      -1.674  -1.399   0.000  1.00  0.00    -0.223 OA
HETATM   21  C   UNL     1      -5.571  -0.649   0.000  1.00  0.00     0.024 A 
ENDBRANCH   1  15
TORSDOF 3
