REMARK  0 active torsions:
REMARK  status: ('A' for Active; 'I' for Inactive)
ROOT
HETATM    1  N   UNL     1      -6.732  -6.300   0.000  1.00  0.00    -0.147 NA
HETATM    2  N   UNL     1      -7.696  -7.449   0.000  1.00  0.00    -0.153 NA
HETATM    3  H   UNL     1      -4.056  -0.750   0.000  1.00  0.00     0.184 HD
HETATM    4  N   UNL     1      -4.520  -2.177   0.000  1.00  0.00    -0.283 N 
HETATM    5  N   UNL     1      -3.638  -3.390   0.000  1.00  0.00     0.003 NA
HETATM    6  N   UNL     1      -4.520  -4.604   0.000  1.00  0.00    -0.156 NA
HETATM    7  C   UNL     1      -7.245  -1.890   0.000  1.00  0.00     0.051 A 
HETATM    8  C   UNL     1      -5.946  -2.640   0.000  1.00  0.00     0.069 A 
HETATM    9  C   UNL     1      -8.544  -2.640   0.000  1.00  0.00     0.034 A 
HETATM   10  C   UNL     1      -5.946  -4.140   0.000  1.00  0.00     0.130 A 
HETATM   11  C   UNL     1      -8.544  -4.140   0.000  1.00  0.00    -0.003 A 
HETATM   12  C   UNL     1      -7.245  -4.890   0.000  1.00  0.00     0.119 A 
HETATM   13  C   UNL     1      -9.174  -7.188   0.000  1.00  0.00     0.076 A 
HETATM   14  C   UNL     1     -10.138  -8.337   0.000  1.00  0.00     0.047 A 
HETATM   15  C   UNL     1      -9.687  -5.779   0.000  1.00  0.00    -0.010 A 
HETATM   16  C   UNL     1     -11.164  -5.518   0.000  1.00  0.00     0.027 A 
HETATM   17  C   UNL     1     -11.615  -8.077   0.000  1.00  0.00     0.007 A 
HETATM   18  C   UNL     1     -12.128  -6.667   0.000  1.00  0.00     0.005 A 
HETATM   19  O   UNL     1      -9.843  -4.890   0.000  1.00  0.00     0.000 OA
HETATM   20  C   UNL     1     -13.605  -6.407   0.000  1.00  0.00     0.000 C 
ENDROOT
TORSDOF 0
