REMARK  1 active torsions:
REMARK  status: ('A' for Active; 'I' for Inactive)
REMARK    1  A    between atoms: N_2  and  C_22 
ROOT
HETATM    1  N   UNL     1      -3.190  -2.467   0.000  1.00  0.00    -0.338 N 
HETATM    2  H   UNL     1      -2.727  -1.041   0.000  1.00  0.00     0.168 HD
HETATM    3  C   UNL     1      -0.817  -3.838   0.000  1.00  0.00     0.043 A 
HETATM    4  C   UNL     1      -2.309  -3.681   0.000  1.00  0.00     0.031 A 
HETATM    5  C   UNL     1      -0.207  -5.208   0.000  1.00  0.00     0.007 A 
HETATM    6  C   UNL     1      -1.088  -6.421   0.000  1.00  0.00     0.005 A 
HETATM    7  C   UNL     1      -3.190  -4.894   0.000  1.00  0.00    -0.011 A 
HETATM    8  C   UNL     1      -2.580  -6.265   0.000  1.00  0.00     0.027 A 
HETATM    9  C   UNL     1      -4.617  -4.431   0.000  1.00  0.00     0.020 A 
HETATM   10  C   UNL     1      -4.617  -2.931   0.000  1.00  0.00     0.159 A 
HETATM   11  C   UNL     1      -7.201  -4.702   0.000  1.00  0.00     0.099 A 
HETATM   12  C   UNL     1      -7.358  -3.211   0.000  1.00  0.00     0.246 A 
HETATM   13  O   UNL     1      -6.144  -2.329   0.000  1.00  0.00    -0.266 OA
HETATM   14  O   UNL     1      -8.728  -2.600   0.000  1.00  0.00    -0.162 OA
HETATM   15  C   UNL     1      -5.830  -5.313   0.000  1.00  0.00     0.078 A 
ENDROOT
BRANCH  11  16
HETATM   16  N   UNL     1      -8.414  -5.584   0.000  1.00  0.00    -0.264 N 
HETATM   17  C   UNL     1      -9.841  -5.121   0.000  1.00  0.00     0.195 A 
HETATM   18  O   UNL     1     -10.304  -3.694   0.000  1.00  0.00    -0.171 OA
HETATM   19  C   UNL     1     -10.723  -6.334   0.000  1.00  0.00     0.020 A 
HETATM   20  C   UNL     1      -9.841  -7.548   0.000  1.00  0.00     0.020 A 
HETATM   21  C   UNL     1     -12.214  -6.491   0.000  1.00  0.00     0.030 A 
HETATM   22  C   UNL     1     -10.451  -8.918   0.000  1.00  0.00     0.030 A 
HETATM   23  C   UNL     1      -8.414  -7.084   0.000  1.00  0.00     0.195 A 
HETATM   24  C   UNL     1     -11.943  -9.075   0.000  1.00  0.00     0.005 A 
HETATM   25  C   UNL     1     -12.824  -7.861   0.000  1.00  0.00     0.005 A 
HETATM   26  O   UNL     1      -7.201  -7.966   0.000  1.00  0.00    -0.171 OA
ENDBRANCH  11  16
TORSDOF 1
