REMARK  0 active torsions:
REMARK  status: ('A' for Active; 'I' for Inactive)
ROOT
HETATM    1  N   UNL     1      -0.843  -4.140   0.000  1.00  0.00    -0.317 N 
HETATM    2  N   UNL     1      -2.945  -2.926   0.000  1.00  0.00    -0.315 N 
HETATM    3  C   UNL     1      -1.831  -1.923   0.000  1.00  0.00     0.132 A 
HETATM    4  C   UNL     1      -0.531  -2.673   0.000  1.00  0.00     0.132 A 
HETATM    5  C   UNL     1      -4.876  -1.188   0.000  1.00  0.00     0.045 A 
HETATM    6  C   UNL     1      -6.343  -0.876   0.000  1.00  0.00     0.007 A 
HETATM    7  C   UNL     1      -4.412  -2.615   0.000  1.00  0.00     0.056 A 
HETATM    8  C   UNL     1      -7.347  -1.991   0.000  1.00  0.00     0.007 A 
HETATM    9  C   UNL     1      -5.416  -3.729   0.000  1.00  0.00     0.084 A 
HETATM   10  C   UNL     1      -6.883  -3.417   0.000  1.00  0.00     0.052 A 
HETATM   11  C   UNL     1      -2.335  -4.297   0.000  1.00  0.00     0.134 A 
HETATM   12  C   UNL     1      -0.487  -5.596   0.000  1.00  0.00     0.037 A 
HETATM   13  C   UNL     1       0.812  -6.346   0.000  1.00  0.00     0.044 A 
HETATM   14  C   UNL     1      -1.786  -6.346   0.000  1.00  0.00     0.020 A 
HETATM   15  C   UNL     1       0.812  -7.846   0.000  1.00  0.00     0.011 A 
HETATM   16  C   UNL     1      -1.786  -7.846   0.000  1.00  0.00    -0.027 A 
HETATM   17  C   UNL     1      -0.487  -8.596   0.000  1.00  0.00     0.026 A 
HETATM   18  C   UNL     1      -3.835  -6.895   0.000  1.00  0.00    -0.013 A 
HETATM   19  C   UNL     1      -5.335  -6.895   0.000  1.00  0.00     0.025 A 
HETATM   20  C   UNL     1      -3.085  -8.194   0.000  1.00  0.00    -0.031 A 
HETATM   21  C   UNL     1      -3.835  -9.493   0.000  1.00  0.00     0.025 A 
HETATM   22  C   UNL     1      -6.085  -8.194   0.000  1.00  0.00     0.005 A 
HETATM   23  C   UNL     1      -5.335  -9.493   0.000  1.00  0.00     0.005 A 
HETATM   24  C   UNL     1      -3.085  -5.596   0.000  1.00  0.00     0.180 A 
HETATM   25  O   UNL     1      -4.384  -4.846   0.000  1.00  0.00    -0.324 OA
ENDROOT
TORSDOF 0
