REMARK  3 active torsions:
REMARK  status: ('A' for Active; 'I' for Inactive)
REMARK    1  A    between atoms: C_2  and  N_20 
REMARK    2  A    between atoms: C_8  and  N_20 
REMARK    3  A    between atoms: C_12  and  C_17 
ROOT
HETATM    1  C   UNL     1       0.129  -7.276   0.000  1.00  0.00     0.067 A 
HETATM    2  C   UNL     1       1.429  -8.026   0.000  1.00  0.00     0.065 A 
HETATM    3  C   UNL     1      -1.170  -8.026   0.000  1.00  0.00    -0.046 A 
HETATM    4  C   UNL     1      -2.469  -7.276   0.000  1.00  0.00     0.022 A 
HETATM    5  C   UNL     1      -3.768  -8.026   0.000  1.00  0.00     0.005 A 
HETATM    6  C   UNL     1       1.429  -9.526   0.000  1.00  0.00     0.060 A 
HETATM    7  C   UNL     1      -1.170  -9.526   0.000  1.00  0.00    -0.047 A 
HETATM    8  C   UNL     1      -3.768  -9.526   0.000  1.00  0.00     0.005 A 
HETATM    9  C   UNL     1       0.129 -10.276   0.000  1.00  0.00     0.055 A 
HETATM   10  C   UNL     1      -2.469 -10.276   0.000  1.00  0.00     0.022 A 
ENDROOT
BRANCH   2  11
HETATM   11  N   UNL     1       2.728  -7.276   0.000  1.00  0.00    -0.258 NA
BRANCH  11  12
HETATM   12  C   UNL     1       2.728  -5.776   0.000  1.00  0.00     0.036 A 
HETATM   13  C   UNL     1       1.429  -5.026   0.000  1.00  0.00     0.041 A 
HETATM   14  C   UNL     1       1.429  -3.526   0.000  1.00  0.00     0.006 A 
HETATM   15  C   UNL     1       2.728  -2.776   0.000  1.00  0.00     0.001 A 
HETATM   16  C   UNL     1       4.027  -3.526   0.000  1.00  0.00     0.006 A 
HETATM   17  C   UNL     1       4.027  -5.026   0.000  1.00  0.00     0.041 A 
ENDBRANCH  11  12
ENDBRANCH   2  11
BRANCH   6  18
HETATM   18  C   UNL     1       2.728 -10.276   0.000  1.00  0.00     0.208 C 
HETATM   19  O   UNL     1       4.027  -9.526   0.000  1.00  0.00    -0.644 OA
HETATM   20  O   UNL     1       2.728 -11.776   0.000  1.00  0.00    -0.644 OA
ENDBRANCH   6  18
TORSDOF 3
