REMARK  1 active torsions:
REMARK  status: ('A' for Active; 'I' for Inactive)
REMARK    1  A    between atoms: C_7  and  C_8 
ROOT
HETATM    1  O   UNL     1       3.579   6.826   0.000  1.00  0.00     0.000 OA
HETATM    2  C   UNL     1      -0.924   7.399   0.000  1.00  0.00     0.033 A 
HETATM    3  C   UNL     1       0.375   6.649   0.000  1.00  0.00     0.153 A 
HETATM    4  C   UNL     1      -2.223   6.649   0.000  1.00  0.00     0.003 A 
HETATM    5  C   UNL     1       0.375   5.149   0.000  1.00  0.00     0.044 A 
HETATM    6  C   UNL     1      -2.223   5.149   0.000  1.00  0.00     0.011 A 
HETATM    7  C   UNL     1      -0.924   4.399   0.000  1.00  0.00     0.090 A 
HETATM    8 AS   UNL     1       2.518   7.887   0.000  1.00  0.00     0.000 As
HETATM    9  C   UNL     1       2.907   9.336   0.000  1.00  0.00     0.000 C 
HETATM   10  O   UNL     1       1.018   7.887   0.000  1.00  0.00    -0.223 OA
ENDROOT
BRANCH   7  11
HETATM   11  C   UNL     1      -0.924   2.900   0.000  1.00  0.00     0.185 C 
HETATM   12  O   UNL     1      -2.223   2.150   0.000  1.00  0.00    -0.647 OA
HETATM   13  O   UNL     1       0.375   2.150   0.000  1.00  0.00    -0.647 OA
ENDBRANCH   7  11
TORSDOF 1
