REMARK  2 active torsions:
REMARK  status: ('A' for Active; 'I' for Inactive)
REMARK    1  A    between atoms: C_9  and  C_19 
REMARK    2  A    between atoms: C_11  and  C_15 
ROOT
HETATM    1 CL   UNL     1      -8.718  -5.899   0.000  1.00  0.00    -0.087 Cl
HETATM    2  N   UNL     1      -3.522  -5.899   0.000  1.00  0.00    -0.251 NA
HETATM    3  C   UNL     1      -6.120  -5.899   0.000  1.00  0.00     0.002 A 
HETATM    4  C   UNL     1      -4.821  -6.649   0.000  1.00  0.00     0.073 A 
HETATM    5  C   UNL     1      -7.419  -6.649   0.000  1.00  0.00     0.033 A 
HETATM    6  C   UNL     1      -4.821  -8.149   0.000  1.00  0.00    -0.002 A 
HETATM    7  C   UNL     1      -7.419  -8.149   0.000  1.00  0.00     0.042 A 
HETATM    8  C   UNL     1      -6.120  -8.899   0.000  1.00  0.00     0.033 A 
HETATM    9  C   UNL     1      -3.522  -8.899   0.000  1.00  0.00     0.046 A 
HETATM   10  C   UNL     1      -2.223  -6.649   0.000  1.00  0.00     0.056 A 
HETATM   11  C   UNL     1      -2.223  -8.149   0.000  1.00  0.00     0.077 A 
HETATM   12  C   UNL     1      -6.120  -4.399   0.000  1.00  0.00     0.033 C 
ENDROOT
BRANCH  10  13
HETATM   13  C   UNL     1      -0.924  -5.899   0.000  1.00  0.00    -0.030 A 
HETATM   14  C   UNL     1      -0.924  -4.399   0.000  1.00  0.00     0.023 A 
HETATM   15  C   UNL     1       0.375  -3.650   0.000  1.00  0.00     0.004 A 
HETATM   16  C   UNL     1       1.674  -4.399   0.000  1.00  0.00     0.001 A 
HETATM   17  C   UNL     1       1.674  -5.899   0.000  1.00  0.00     0.004 A 
HETATM   18  C   UNL     1       0.375  -6.649   0.000  1.00  0.00     0.023 A 
ENDBRANCH  10  13
BRANCH   9  19
HETATM   19  C   UNL     1      -3.522 -10.399   0.000  1.00  0.00     0.207 C 
HETATM   20  O   UNL     1      -4.821 -11.149   0.000  1.00  0.00    -0.644 OA
HETATM   21  O   UNL     1      -2.223 -11.149   0.000  1.00  0.00    -0.644 OA
ENDBRANCH   9  19
TORSDOF 2
