REMARK  0 active torsions:
REMARK  status: ('A' for Active; 'I' for Inactive)
ROOT
HETATM    1  H   UNL     1       4.013  -0.750   0.000  1.00  0.00     0.169 HD
HETATM    2  S   UNL     1       0.750  -0.750   0.000  1.00  0.00    -0.053 SA
HETATM    3  N   UNL     1       3.132  -1.964   0.000  1.00  0.00    -0.323 N 
HETATM    4  O   UNL     1       5.022  -3.854   0.000  1.00  0.00    -0.175 OA
HETATM    5  S   UNL     1       1.168  -3.390   0.000  1.00  0.00    -0.091 SA
HETATM    6  C   UNL     1       3.595  -3.390   0.000  1.00  0.00     0.178 A 
HETATM    7  C   UNL     1       2.382  -4.272   0.000  1.00  0.00     0.116 A 
HETATM    8  C   UNL     1       1.083  -8.022   0.000  1.00  0.00     0.021 A 
HETATM    9  C   UNL     1      -0.216  -8.772   0.000  1.00  0.00     0.005 A 
HETATM   10  C   UNL     1       1.083  -6.522   0.000  1.00  0.00    -0.048 A 
HETATM   11  C   UNL     1      -1.515  -8.022   0.000  1.00  0.00     0.005 A 
HETATM   12  C   UNL     1      -0.216  -5.772   0.000  1.00  0.00    -0.012 A 
HETATM   13  C   UNL     1      -1.515  -6.522   0.000  1.00  0.00     0.025 A 
HETATM   14  C   UNL     1       1.632  -1.964   0.000  1.00  0.00     0.135 A 
HETATM   15  C   UNL     1      -0.216  -4.272   0.000  1.00  0.00     0.215 A 
HETATM   16  O   UNL     1       1.083  -3.522   0.000  1.00  0.00     0.000 OA
HETATM   17  O   UNL     1      -1.515  -3.522   0.000  1.00  0.00    -0.207 OA
HETATM   18  C   UNL     1       2.382  -5.772   0.000  1.00  0.00     0.040 A 
ENDROOT
TORSDOF 0
