REMARK  3 active torsions:
REMARK  status: ('A' for Active; 'I' for Inactive)
REMARK    1  A    between atoms: C_4  and  N_8 
REMARK    2  A    between atoms: N_8  and  C_9 
REMARK    3  A    between atoms: C_9  and  N_11 
REMARK       I    between atoms: N_11  and  C_12 
ROOT
HETATM    1 CL   UNL     1      -5.138   0.385   0.000  1.00  0.00    -0.092 Cl
HETATM    2  C   UNL     1      -1.641  -1.491   0.000  1.00  0.00     0.030 A 
HETATM    3  C   UNL     1      -3.122  -1.253   0.000  1.00  0.00     0.035 A 
HETATM    4  C   UNL     1      -0.695  -0.327   0.000  1.00  0.00     0.106 A 
HETATM    5  C   UNL     1      -1.230   1.075   0.000  1.00  0.00     0.030 A 
HETATM    6  C   UNL     1      -3.657   0.148   0.000  1.00  0.00     0.013 A 
HETATM    7  C   UNL     1      -2.711   1.312   0.000  1.00  0.00     0.035 A 
ENDROOT
BRANCH   4   8
HETATM    8  N   UNL     1       0.786  -0.564   0.000  1.00  0.00    -0.246 NA
BRANCH   8   9
HETATM    9  C   UNL     1       1.516   0.747   0.000  1.00  0.00     0.218 C 
HETATM   10  S   UNL     1       0.746   2.034   0.000  1.00  0.00    -0.037 SA
BRANCH   9  11
HETATM   11  N   UNL     1       3.016   0.770   0.000  1.00  0.00    -0.190 NA
HETATM   12  C   UNL     1       3.786  -0.517   0.000  1.00  0.00     0.225 C 
HETATM   13  N   UNL     1       3.057  -1.827   0.000  1.00  0.00    -0.065 NA
HETATM   14  N   UNL     1       5.286  -0.493   0.000  1.00  0.00    -0.065 NA
ENDBRANCH   9  11
ENDBRANCH   8   9
ENDBRANCH   4   8
TORSDOF 3
