REMARK  0 active torsions:
REMARK  status: ('A' for Active; 'I' for Inactive)
REMARK       I    between atoms: N_3  and  C_13 
ROOT
HETATM    1  N   UNL     1      -4.647  -0.750   0.000  1.00  0.00    -0.220 NA
HETATM    2  O   UNL     1      -4.647  -5.250   0.000  1.00  0.00    -0.171 OA
HETATM    3  N   UNL     1      -3.348  -3.000   0.000  1.00  0.00    -0.236 N 
HETATM    4  C   UNL     1      -7.245  -0.750   0.000  1.00  0.00     0.046 A 
HETATM    5  C   UNL     1      -5.946  -1.500   0.000  1.00  0.00     0.061 A 
HETATM    6  C   UNL     1      -8.544  -1.500   0.000  1.00  0.00     0.007 A 
HETATM    7  C   UNL     1      -5.946  -3.000   0.000  1.00  0.00     0.034 A 
HETATM    8  C   UNL     1      -8.544  -3.000   0.000  1.00  0.00     0.005 A 
HETATM    9  C   UNL     1      -7.245  -3.750   0.000  1.00  0.00     0.031 A 
HETATM   10  C   UNL     1      -4.647  -3.750   0.000  1.00  0.00     0.199 A 
HETATM   11  C   UNL     1      -3.348  -1.500   0.000  1.00  0.00     0.225 A 
HETATM   12  N   UNL     1      -2.049  -0.750   0.000  1.00  0.00    -0.061 NA
HETATM   13  C   UNL     1      -2.049  -3.750   0.000  1.00  0.00     0.212 C 
HETATM   14  N   UNL     1      -0.750  -3.000   0.000  1.00  0.00    -0.066 NA
HETATM   15  N   UNL     1      -2.049  -5.250   0.000  1.00  0.00    -0.066 NA
ENDROOT
TORSDOF 0
