REMARK  6 active torsions:
REMARK  status: ('A' for Active; 'I' for Inactive)
REMARK    1  A    between atoms: C_19  and  C_25 
REMARK    2  A    between atoms: C_20  and  C_21 
REMARK    3  A    between atoms: C_21  and  C_22 
REMARK    4  A    between atoms: C_22  and  C_23 
REMARK    5  A    between atoms: C_23  and  C_24 
REMARK    6  A    between atoms: C_24  and  C_25 
ROOT
HETATM    1  C   UNL     1      -6.853  -2.091   0.000  1.00  0.00     0.001 C 
ENDROOT
BRANCH   1   2
HETATM    2  C   UNL     1      -8.353  -2.091   0.000  1.00  0.00     0.008 C 
BRANCH   2   3
HETATM    3  C   UNL     1      -9.103  -3.390   0.000  1.00  0.00     0.064 C 
BRANCH   3   4
HETATM    4  C   UNL     1     -10.603  -3.390   0.000  1.00  0.00     0.117 A 
HETATM    5  N   UNL     1     -11.484  -2.177   0.000  1.00  0.00    -0.345 N 
HETATM    6  H   UNL     1     -11.021  -0.750   0.000  1.00  0.00     0.167 HD
HETATM    7  C   UNL     1     -12.911  -2.640   0.000  1.00  0.00     0.048 A 
HETATM    8  C   UNL     1     -14.210  -1.890   0.000  1.00  0.00     0.045 A 
HETATM    9  C   UNL     1     -12.911  -4.140   0.000  1.00  0.00     0.072 A 
HETATM   10  C   UNL     1     -15.509  -2.640   0.000  1.00  0.00     0.007 A 
HETATM   11  C   UNL     1     -15.509  -4.140   0.000  1.00  0.00     0.007 A 
HETATM   12  C   UNL     1     -14.210  -4.890   0.000  1.00  0.00     0.047 A 
HETATM   13  N   UNL     1     -11.484  -4.604   0.000  1.00  0.00    -0.236 NA
ENDBRANCH   3   4
ENDBRANCH   2   3
ENDBRANCH   1   2
BRANCH   1  14
HETATM   14  C   UNL     1      -6.103  -0.792   0.000  1.00  0.00     0.008 C 
BRANCH  14  15
HETATM   15  C   UNL     1      -4.603  -0.792   0.000  1.00  0.00     0.064 C 
BRANCH  15  16
HETATM   16  C   UNL     1      -3.853  -2.091   0.000  1.00  0.00     0.117 A 
HETATM   17  N   UNL     1      -4.463  -3.461   0.000  1.00  0.00    -0.236 NA
HETATM   18  C   UNL     1      -3.348  -4.465   0.000  1.00  0.00     0.072 A 
HETATM   19  C   UNL     1      -2.049  -3.715   0.000  1.00  0.00     0.048 A 
HETATM   20  C   UNL     1      -3.348  -5.965   0.000  1.00  0.00     0.047 A 
HETATM   21  N   UNL     1      -2.361  -2.248   0.000  1.00  0.00    -0.345 N 
HETATM   22  C   UNL     1      -0.750  -4.465   0.000  1.00  0.00     0.045 A 
HETATM   23  H   UNL     1      -1.357  -1.133   0.000  1.00  0.00     0.167 HD
HETATM   24  C   UNL     1      -0.750  -5.965   0.000  1.00  0.00     0.007 A 
HETATM   25  C   UNL     1      -2.049  -6.715   0.000  1.00  0.00     0.007 A 
ENDBRANCH  15  16
ENDBRANCH  14  15
ENDBRANCH   1  14
TORSDOF 6
