REMARK  0 active torsions:
REMARK  status: ('A' for Active; 'I' for Inactive)
ROOT
HETATM    1  N   UNL     1       0.750  -4.140   0.000  1.00  0.00    -0.227 NA
HETATM    2  N   UNL     1       2.049  -1.890   0.000  1.00  0.00    -0.226 NA
HETATM    3  N   UNL     1       5.946  -7.140   0.000  1.00  0.00    -0.268 NA
HETATM    4  N   UNL     1       4.775  -2.177   0.000  1.00  0.00    -0.260 N 
HETATM    5  H   UNL     1       5.238  -0.750   0.000  1.00  0.00     0.191 HD
HETATM    6  N   UNL     1       5.656  -3.390   0.000  1.00  0.00    -0.170 NA
HETATM    7  C   UNL     1       3.348  -2.640   0.000  1.00  0.00     0.158 A 
HETATM    8  C   UNL     1       3.348  -4.140   0.000  1.00  0.00     0.090 A 
HETATM    9  C   UNL     1       2.049  -4.890   0.000  1.00  0.00     0.146 A 
HETATM   10  C   UNL     1       4.775  -4.604   0.000  1.00  0.00     0.125 A 
HETATM   11  C   UNL     1       0.750  -2.640   0.000  1.00  0.00     0.254 A 
HETATM   12  C   UNL     1       3.348  -7.140   0.000  1.00  0.00     0.057 A 
HETATM   13  C   UNL     1       3.348  -8.640   0.000  1.00  0.00     0.048 A 
HETATM   14  C   UNL     1       4.647  -6.390   0.000  1.00  0.00     0.107 A 
HETATM   15  C   UNL     1       4.647  -9.390   0.000  1.00  0.00     0.033 A 
HETATM   16  C   UNL     1       5.946  -8.640   0.000  1.00  0.00     0.126 A 
HETATM   17  N   UNL     1       2.049  -6.390   0.000  1.00  0.00    -0.313 N 
HETATM   18  C   UNL     1       0.750  -7.140   0.000  1.00  0.00     0.132 C 
ENDROOT
TORSDOF 0
