REMARK  1 active torsions:
REMARK  status: ('A' for Active; 'I' for Inactive)
REMARK    1  A    between atoms: C_5  and  C_6 
ROOT
HETATM    1  C   UNL     1      -3.000  -0.750   0.000  1.00  0.00     0.004 A 
HETATM    2  C   UNL     1      -4.500  -0.750   0.000  1.00  0.00     0.022 A 
HETATM    3  C   UNL     1      -2.250  -2.049   0.000  1.00  0.00     0.001 A 
HETATM    4  C   UNL     1      -5.250  -2.049   0.000  1.00  0.00    -0.046 A 
HETATM    5  C   UNL     1      -3.000  -3.348   0.000  1.00  0.00     0.004 A 
HETATM    6  C   UNL     1      -4.500  -3.348   0.000  1.00  0.00     0.022 A 
HETATM    7  C   UNL     1      -0.750  -2.049   0.000  1.00  0.00     0.000 C 
ENDROOT
BRANCH   4   8
HETATM    8  C   UNL     1      -6.750  -2.049   0.000  1.00  0.00    -0.002 A 
HETATM    9  C   UNL     1      -7.632  -0.836   0.000  1.00  0.00     0.096 A 
HETATM   10  S   UNL     1      -9.058  -1.299   0.000  1.00  0.00    -0.072 SA
HETATM   11  S   UNL     1      -9.058  -2.799   0.000  1.00  0.00    -0.044 SA
HETATM   12  C   UNL     1      -7.632  -3.263   0.000  1.00  0.00     0.086 A 
HETATM   13  S   UNL     1      -7.168  -4.689   0.000  1.00  0.00    -0.071 SA
ENDBRANCH   4   8
TORSDOF 1
