REMARK  2 active torsions:
REMARK  status: ('A' for Active; 'I' for Inactive)
REMARK    1  A    between atoms: N_1  and  C_17 
REMARK    2  A    between atoms: C_6  and  C_17 
ROOT
HETATM    1  C   UNL     1      -3.248  -5.482   0.000  1.00  0.00     0.055 A 
HETATM    2  C   UNL     1      -1.949  -6.232   0.000  1.00  0.00     0.029 A 
HETATM    3  C   UNL     1      -4.547  -6.232   0.000  1.00  0.00     0.090 A 
HETATM    4  C   UNL     1      -1.949  -7.732   0.000  1.00  0.00     0.009 A 
HETATM    5  C   UNL     1      -4.547  -7.732   0.000  1.00  0.00     0.090 A 
HETATM    6  C   UNL     1      -3.248  -8.482   0.000  1.00  0.00     0.053 A 
HETATM    7  O   UNL     1      -5.846  -5.482   0.000  1.00  0.00    -0.331 OA
HETATM    8  C   UNL     1      -7.145  -6.232   0.000  1.00  0.00     0.181 A 
HETATM    9  O   UNL     1      -5.846  -8.482   0.000  1.00  0.00    -0.331 OA
HETATM   10  C   UNL     1      -7.145  -7.732   0.000  1.00  0.00     0.181 A 
ENDROOT
BRANCH   2  11
HETATM   11  C   UNL     1      -0.649  -5.482   0.000  1.00  0.00     0.106 C 
BRANCH  11  12
HETATM   12  N   UNL     1      -0.649  -3.982   0.000  1.00  0.00    -0.306 N 
HETATM   13  C   UNL     1      -1.863  -3.101   0.000  1.00  0.00     0.296 A 
HETATM   14  O   UNL     1      -3.290  -3.564   0.000  1.00  0.00    -0.143 OA
HETATM   15  O   UNL     1      -1.399  -1.674   0.000  1.00  0.00    -0.294 OA
HETATM   16  C   UNL     1       0.101  -1.674   0.000  1.00  0.00     0.177 A 
HETATM   17  C   UNL     1       0.564  -3.101   0.000  1.00  0.00     0.138 A 
ENDBRANCH  11  12
ENDBRANCH   2  11
TORSDOF 2
