REMARK  1 active torsions:
REMARK  status: ('A' for Active; 'I' for Inactive)
REMARK    1  A    between atoms: C_13  and  C_14 
ROOT
HETATM    1  C   UNL     1       4.922  -3.475   0.000  1.00  0.00     0.022 A 
HETATM    2  C   UNL     1       3.623  -4.226   0.000  1.00  0.00     0.005 A 
HETATM    3  C   UNL     1       4.922  -1.976   0.000  1.00  0.00    -0.044 A 
HETATM    4  C   UNL     1       2.324  -3.475   0.000  1.00  0.00     0.005 A 
HETATM    5  C   UNL     1       3.623  -1.226   0.000  1.00  0.00    -0.034 A 
HETATM    6  C   UNL     1       2.324  -1.976   0.000  1.00  0.00     0.025 A 
HETATM    7  C   UNL     1       4.922   2.525   0.000  1.00  0.00     0.026 A 
HETATM    8  C   UNL     1       4.922   1.024   0.000  1.00  0.00    -0.024 A 
HETATM    9  C   UNL     1       3.623   3.275   0.000  1.00  0.00     0.005 A 
HETATM   10  C   UNL     1       3.623   0.275   0.000  1.00  0.00    -0.031 A 
HETATM   11  C   UNL     1       2.324   2.525   0.000  1.00  0.00     0.005 A 
HETATM   12  C   UNL     1       2.324   1.024   0.000  1.00  0.00     0.026 A 
HETATM   13  C   UNL     1       6.221   0.275   0.000  1.00  0.00     0.042 A 
HETATM   14  C   UNL     1       6.221  -1.226   0.000  1.00  0.00     0.054 A 
ENDROOT
BRANCH  13  15
HETATM   15  C   UNL     1       7.520   1.024   0.000  1.00  0.00     0.207 C 
HETATM   16  O   UNL     1       8.819   0.275   0.000  1.00  0.00    -0.644 OA
HETATM   17  O   UNL     1       7.520   2.525   0.000  1.00  0.00    -0.644 OA
ENDBRANCH  13  15
TORSDOF 1
