REMARK  2 active torsions:
REMARK  status: ('A' for Active; 'I' for Inactive)
REMARK    1  A    between atoms: N_6  and  C_13 
REMARK    2  A    between atoms: C_13  and  C_14 
ROOT
HETATM    1  N   UNL     1      -9.358   1.537   0.000  1.00  0.00    -0.203 NA
HETATM    2  N   UNL     1      -8.059  -0.713   0.000  1.00  0.00    -0.313 N 
HETATM    3  S   UNL     1      -8.059   3.787   0.000  1.00  0.00    -0.056 SA
HETATM    4  H   UNL     1      -8.059  -2.213   0.000  1.00  0.00     0.170 HD
HETATM    5  N   UNL     1      -5.334   2.001   0.000  1.00  0.00    -0.240 NA
HETATM    6  N   UNL     1      -5.334  -0.426   0.000  1.00  0.00    -0.313 N 
HETATM    7  C   UNL     1      -8.059   2.287   0.000  1.00  0.00     0.158 A 
HETATM    8  C   UNL     1      -6.760   1.537   0.000  1.00  0.00     0.138 A 
HETATM    9  C   UNL     1      -6.760   0.037   0.000  1.00  0.00     0.141 A 
HETATM   10  C   UNL     1      -4.452   0.787   0.000  1.00  0.00     0.232 A 
HETATM   11  C   UNL     1      -9.358   0.037   0.000  1.00  0.00     0.217 A 
HETATM   12  N   UNL     1     -10.658  -0.713   0.000  1.00  0.00    -0.061 NA
ENDROOT
BRANCH   6  13
HETATM   13  C   UNL     1      -4.870  -1.853   0.000  1.00  0.00     0.105 C 
BRANCH  13  14
HETATM   14  C   UNL     1      -3.403  -2.165   0.000  1.00  0.00     0.024 C 
HETATM   15  C   UNL     1      -2.939  -3.591   0.000  1.00  0.00     0.002 C 
ENDBRANCH  13  14
ENDBRANCH   6  13
TORSDOF 2
