REMARK  0 active torsions:
REMARK  status: ('A' for Active; 'I' for Inactive)
ROOT
HETATM    1  H   UNL     1       2.024   1.197   0.000  1.00  0.00     0.155 HD
HETATM    2  N   UNL     1       3.324   0.447   0.000  1.00  0.00    -0.387 N 
HETATM    3  N   UNL     1       7.221  -1.803   0.000  1.00  0.00     0.029 N 
HETATM    4  O   UNL     1       8.520  -4.053   0.000  1.00  0.00    -0.190 OA
HETATM    5  C   UNL     1       5.921   0.447   0.000  1.00  0.00     0.015 A 
HETATM    6  C   UNL     1       7.221  -0.303   0.000  1.00  0.00     0.213 A 
HETATM    7  C   UNL     1       5.921  -1.053   0.000  1.00  0.00     0.224 A 
HETATM    8  C   UNL     1       4.622   1.197   0.000  1.00  0.00     0.117 A 
HETATM    9  C   UNL     1       8.520   0.447   0.000  1.00  0.00     0.035 A 
HETATM   10  C   UNL     1       9.819  -0.303   0.000  1.00  0.00     0.007 A 
HETATM   11  C   UNL     1       9.819  -1.803   0.000  1.00  0.00     0.065 A 
HETATM   12  C   UNL     1       4.622  -1.803   0.000  1.00  0.00     0.018 A 
HETATM   13  C   UNL     1       8.520  -2.553   0.000  1.00  0.00     0.338 A 
HETATM   14  C   UNL     1       3.324  -1.053   0.000  1.00  0.00     0.117 A 
HETATM   15  C   UNL     1       5.921  -2.553   0.000  1.00  0.00     0.243 A 
ENDROOT
TORSDOF 0
