REMARK  6 active torsions:
REMARK  status: ('A' for Active; 'I' for Inactive)
REMARK    1  A    between atoms: N_1  and  C_15 
REMARK    2  A    between atoms: N_1  and  N_2 
REMARK    3  A    between atoms: N_2  and  C_21 
REMARK    4  A    between atoms: N_6  and  C_20 
REMARK    5  A    between atoms: N_6  and  N_7 
REMARK    6  A    between atoms: N_7  and  C_10 
ROOT
HETATM    1  H   UNL     1       5.809   3.753   0.000  1.00  0.00     0.186 HD
HETATM    2  N   UNL     1       4.506   4.497   0.000  1.00  0.00    -0.166 N 
HETATM    3  N   UNL     1       2.130   4.989   0.000  1.00  0.00    -0.061 NA
HETATM    4  C   UNL     1       3.139   3.880   0.000  1.00  0.00     0.747 A 
HETATM    5  C   UNL     1       4.342   5.988   0.000  1.00  0.00     0.191 A 
HETATM    6  C   UNL     1       2.873   6.292   0.000  1.00  0.00     0.114 A 
HETATM    7  C   UNL     1       2.256   7.659   0.000  1.00  0.00     0.056 C 
ENDROOT
BRANCH   4   8
HETATM    8  N   UNL     1       2.834   2.411   0.000  1.00  0.00     0.044 NA
BRANCH   8   9
HETATM    9  N   UNL     1       3.954   1.413   0.000  1.00  0.00    -0.141 NA
BRANCH   9  10
HETATM   10  C   UNL     1       3.650  -0.056   0.000  1.00  0.00     0.059 A 
HETATM   11  C   UNL     1       2.225  -0.527   0.000  1.00  0.00     0.043 A 
HETATM   12  C   UNL     1       1.921  -1.996   0.000  1.00  0.00     0.006 A 
HETATM   13  C   UNL     1       3.041  -2.994   0.000  1.00  0.00     0.001 A 
HETATM   14  C   UNL     1       4.465  -2.523   0.000  1.00  0.00     0.006 A 
HETATM   15  C   UNL     1       4.769  -1.054   0.000  1.00  0.00     0.043 A 
ENDBRANCH   9  10
ENDBRANCH   8   9
ENDBRANCH   4   8
BRANCH   5  16
HETATM   16  N   UNL     1       5.452   6.997   0.000  1.00  0.00    -0.129 NA
BRANCH  16  17
HETATM   17  N   UNL     1       5.132   8.463   0.000  1.00  0.00    -0.155 NA
BRANCH  17  18
HETATM   18  C   UNL     1       6.242   9.472   0.000  1.00  0.00     0.058 A 
HETATM   19  C   UNL     1       5.923  10.937   0.000  1.00  0.00     0.043 A 
HETATM   20  C   UNL     1       7.032  11.947   0.000  1.00  0.00     0.006 A 
HETATM   21  C   UNL     1       8.461  11.490   0.000  1.00  0.00     0.001 A 
HETATM   22  C   UNL     1       8.781  10.025   0.000  1.00  0.00     0.006 A 
HETATM   23  C   UNL     1       7.671   9.015   0.000  1.00  0.00     0.043 A 
ENDBRANCH  17  18
ENDBRANCH  16  17
ENDBRANCH   5  16
TORSDOF 6
