REMARK  1 active torsions:
REMARK  status: ('A' for Active; 'I' for Inactive)
REMARK    1  A    between atoms: C_20  and  C_21 
ROOT
HETATM    1  C   UNL     1       4.922   5.524   0.000  1.00  0.00     0.009 A 
HETATM    2  C   UNL     1       6.221   4.774   0.000  1.00  0.00     0.023 A 
HETATM    3  C   UNL     1       3.623   4.774   0.000  1.00  0.00     0.022 A 
HETATM    4  C   UNL     1       6.221   3.275   0.000  1.00  0.00    -0.040 A 
HETATM    5  C   UNL     1       3.623   3.275   0.000  1.00  0.00    -0.044 A 
HETATM    6  C   UNL     1       7.520   2.525   0.000  1.00  0.00     0.048 A 
HETATM    7  C   UNL     1       4.922   2.525   0.000  1.00  0.00    -0.016 A 
HETATM    8  C   UNL     1       2.324   2.525   0.000  1.00  0.00     0.026 A 
HETATM    9  C   UNL     1       7.520   1.024   0.000  1.00  0.00    -0.016 A 
HETATM   10  C   UNL     1       4.922   1.024   0.000  1.00  0.00    -0.010 A 
HETATM   11  C   UNL     1       2.324   1.024   0.000  1.00  0.00     0.026 A 
HETATM   12  C   UNL     1       6.221   0.275   0.000  1.00  0.00    -0.007 A 
HETATM   13  C   UNL     1       3.623   0.275   0.000  1.00  0.00    -0.044 A 
HETATM   14  C   UNL     1       6.221  -1.226   0.000  1.00  0.00    -0.001 A 
HETATM   15  C   UNL     1       3.623  -1.226   0.000  1.00  0.00     0.027 A 
HETATM   16  C   UNL     1       4.922  -1.976   0.000  1.00  0.00     0.032 A 
HETATM   17  C   UNL     1       7.520  -1.976   0.000  1.00  0.00     0.109 A 
HETATM   18  O   UNL     1       7.520  -3.475   0.000  1.00  0.00    -0.195 OA
HETATM   19  C   UNL     1       8.819  -1.226   0.000  1.00  0.00     0.086 A 
HETATM   20  C   UNL     1       8.819   0.275   0.000  1.00  0.00     0.045 A 
ENDROOT
BRANCH  20  21
HETATM   21  C   UNL     1      10.118   1.024   0.000  1.00  0.00     0.207 C 
HETATM   22  O   UNL     1      10.118   2.525   0.000  1.00  0.00    -0.644 OA
HETATM   23  O   UNL     1      11.417   0.275   0.000  1.00  0.00    -0.644 OA
ENDBRANCH  20  21
TORSDOF 1
