REMARK  4 active torsions:
REMARK  status: ('A' for Active; 'I' for Inactive)
REMARK    1  A    between atoms: C_2  and  C_8 
REMARK    2  A    between atoms: C_8  and  N_10 
REMARK    3  A    between atoms: N_10  and  C_11 
REMARK    4  A    between atoms: C_11  and  C_12 
ROOT
HETATM    1  O   UNL     1      -6.067  -5.024   0.000  1.00  0.00    -0.357 OA
HETATM    2  C   UNL     1      -4.768  -5.774   0.000  1.00  0.00     0.115 A 
HETATM    3  C   UNL     1      -4.768  -7.274   0.000  1.00  0.00     0.029 A 
HETATM    4  C   UNL     1      -6.067  -8.024   0.000  1.00  0.00     0.005 A 
HETATM    5  C   UNL     1      -7.366  -7.274   0.000  1.00  0.00     0.030 A 
HETATM    6  C   UNL     1      -7.366  -5.774   0.000  1.00  0.00     0.142 A 
HETATM    7  C   UNL     1      -8.665  -8.024   0.000  1.00  0.00     0.003 C 
HETATM    8  C   UNL     1      -3.291  -6.035   0.000  1.00  0.00     0.032 C 
ENDROOT
BRANCH   2   9
HETATM    9  C   UNL     1      -4.255  -4.364   0.000  1.00  0.00     0.147 C 
BRANCH   9  10
HETATM   10  N   UNL     1      -2.778  -4.104   0.000  1.00  0.00    -0.293 NA
BRANCH  10  11
HETATM   11  C   UNL     1      -2.265  -2.695   0.000  1.00  0.00     0.120 C 
BRANCH  11  12
HETATM   12  C   UNL     1      -0.787  -2.434   0.000  1.00  0.00     0.024 C 
HETATM   13  C   UNL     1      -0.275  -1.024   0.000  1.00  0.00     0.002 C 
HETATM   14  C   UNL     1       0.177  -3.583   0.000  1.00  0.00     0.002 C 
ENDBRANCH  11  12
ENDBRANCH  10  11
ENDBRANCH   9  10
ENDBRANCH   2   9
TORSDOF 4
