REMARK  1 active torsions:
REMARK  status: ('A' for Active; 'I' for Inactive)
REMARK    1  A    between atoms: C_3  and  C_9 
ROOT
HETATM    1  N   UNL     1      -4.647  -0.750   0.000  1.00  0.00    -0.220 NA
HETATM    2  N   UNL     1      -3.348  -3.000   0.000  1.00  0.00    -0.220 NA
HETATM    3  C   UNL     1      -3.348  -1.500   0.000  1.00  0.00     0.157 A 
HETATM    4  C   UNL     1      -5.946  -1.500   0.000  1.00  0.00     0.137 A 
HETATM    5  C   UNL     1      -5.946  -3.000   0.000  1.00  0.00     0.121 A 
HETATM    6  C   UNL     1      -4.647  -3.750   0.000  1.00  0.00     0.137 A 
HETATM    7  N   UNL     1      -7.245  -0.750   0.000  1.00  0.00    -0.084 NA
HETATM    8  N   UNL     1      -4.647  -5.250   0.000  1.00  0.00    -0.084 NA
ENDROOT
BRANCH   3   9
HETATM    9  C   UNL     1      -2.049  -0.750   0.000  1.00  0.00     0.157 C 
HETATM   10  S   UNL     1      -0.750  -1.500   0.000  1.00  0.00    -0.101 SA
ENDBRANCH   3   9
TORSDOF 1
