REMARK  4 active torsions:
REMARK  status: ('A' for Active; 'I' for Inactive)
REMARK    1  A    between atoms: N_3  and  C_6 
REMARK    2  A    between atoms: N_3  and  N_4 
REMARK    3  A    between atoms: N_4  and  C_10 
REMARK    4  A    between atoms: C_11  and  C_18 
ROOT
HETATM    1  N   UNL     1      -1.343   2.342   0.000  1.00  0.00    -0.143 NA
ENDROOT
BRANCH   1   2
HETATM    2  C   UNL     1      -2.226   3.554   0.000  1.00  0.00     0.165 A 
HETATM    3  C   UNL     1      -3.717   3.395   0.000  1.00  0.00     0.175 A 
HETATM    4  N   UNL     1      -4.601   4.608   0.000  1.00  0.00    -0.199 NA
HETATM    5  N   UNL     1      -4.326   2.024   0.000  1.00  0.00    -0.078 NA
HETATM    6  C   UNL     1      -3.992   5.979   0.000  1.00  0.00     0.239 A 
HETATM    7  N   UNL     1      -2.501   6.138   0.000  1.00  0.00    -0.199 NA
HETATM    8  N   UNL     1      -4.875   7.191   0.000  1.00  0.00    -0.060 NA
HETATM    9  C   UNL     1      -1.617   4.925   0.000  1.00  0.00     0.175 A 
HETATM   10  N   UNL     1      -0.126   5.084   0.000  1.00  0.00    -0.078 NA
ENDBRANCH   1   2
BRANCH   1  11
HETATM   11  N   UNL     1       0.149   2.500   0.000  1.00  0.00    -0.157 NA
BRANCH  11  12
HETATM   12  C   UNL     1       1.229   1.460   0.000  1.00  0.00     0.058 A 
HETATM   13  C   UNL     1       0.868   0.004   0.000  1.00  0.00     0.044 A 
HETATM   14  C   UNL     1       1.948  -1.037   0.000  1.00  0.00     0.017 A 
HETATM   15  C   UNL     1       3.390  -0.622   0.000  1.00  0.00     0.088 A 
HETATM   16  C   UNL     1       3.751   0.834   0.000  1.00  0.00     0.017 A 
HETATM   17  C   UNL     1       2.671   1.875   0.000  1.00  0.00     0.044 A 
BRANCH  15  18
HETATM   18  C   UNL     1       4.470  -1.662   0.000  1.00  0.00     0.185 C 
HETATM   19  O   UNL     1       4.109  -3.118   0.000  1.00  0.00    -0.647 OA
HETATM   20  O   UNL     1       5.912  -1.247   0.000  1.00  0.00    -0.647 OA
ENDBRANCH  15  18
ENDBRANCH  11  12
ENDBRANCH   1  11
TORSDOF 4
