REMARK  0 active torsions:
REMARK  status: ('A' for Active; 'I' for Inactive)
ROOT
HETATM    1  C   UNL     1       5.005   1.831   0.000  1.00  0.00     0.038 A 
HETATM    2  C   UNL     1       3.706   1.081   0.000  1.00  0.00     0.033 A 
HETATM    3  C   UNL     1       6.304   1.081   0.000  1.00  0.00     0.059 A 
HETATM    4  C   UNL     1       5.005  -2.670   0.000  1.00  0.00     0.032 A 
HETATM    5  C   UNL     1       3.706  -0.419   0.000  1.00  0.00     0.046 A 
HETATM    6  C   UNL     1       6.304  -0.419   0.000  1.00  0.00     0.104 A 
HETATM    7  C   UNL     1       6.304  -3.420   0.000  1.00  0.00     0.094 A 
HETATM    8  C   UNL     1       3.706  -3.420   0.000  1.00  0.00     0.062 A 
HETATM    9  C   UNL     1       5.005  -1.169   0.000  1.00  0.00     0.026 A 
HETATM   10  C   UNL     1       6.304  -4.920   0.000  1.00  0.00     0.049 A 
HETATM   11  C   UNL     1       3.706  -4.920   0.000  1.00  0.00     0.046 A 
HETATM   12  C   UNL     1       5.005  -5.670   0.000  1.00  0.00     0.013 A 
HETATM   13  C   UNL     1       2.407  -1.169   0.000  1.00  0.00     0.212 A 
HETATM   14  O   UNL     1       1.108  -0.419   0.000  1.00  0.00    -0.169 OA
HETATM   15  C   UNL     1       2.407   1.831   0.000  1.00  0.00     0.257 A 
HETATM   16  O   UNL     1       2.407   3.330   0.000  1.00  0.00    -0.161 OA
HETATM   17  O   UNL     1       1.108   1.081   0.000  1.00  0.00    -0.161 OA
HETATM   18  N   UNL     1       2.407  -2.670   0.000  1.00  0.00    -0.224 NA
HETATM   19  N   UNL     1       7.603  -2.670   0.000  1.00  0.00    -0.088 N 
HETATM   20  O   UNL     1       8.902  -3.420   0.000  1.00  0.00    -0.057 OA
HETATM   21  O   UNL     1       7.603  -1.169   0.000  1.00  0.00    -0.210 OA
ENDROOT
TORSDOF 0
