REMARK  0 active torsions:
REMARK  status: ('A' for Active; 'I' for Inactive)
ROOT
HETATM    1  C   UNL     1      -2.049  -3.000   0.000  1.00  0.00     0.030 A 
HETATM    2  C   UNL     1      -0.750  -3.750   0.000  1.00  0.00     0.005 A 
HETATM    3  C   UNL     1      -3.348  -3.750   0.000  1.00  0.00     0.020 A 
HETATM    4  C   UNL     1      -0.750  -5.250   0.000  1.00  0.00     0.005 A 
HETATM    5  C   UNL     1      -3.348  -5.250   0.000  1.00  0.00     0.005 A 
HETATM    6  C   UNL     1      -2.049  -6.000   0.000  1.00  0.00     0.028 A 
HETATM    7  C   UNL     1      -7.245  -1.500   0.000  1.00  0.00     0.047 A 
HETATM    8  C   UNL     1      -8.544  -0.750   0.000  1.00  0.00     0.007 A 
HETATM    9  C   UNL     1      -7.245  -3.000   0.000  1.00  0.00     0.077 A 
HETATM   10  C   UNL     1      -8.544  -3.750   0.000  1.00  0.00     0.109 A 
HETATM   11  C   UNL     1      -9.843  -1.500   0.000  1.00  0.00     0.007 A 
HETATM   12  C   UNL     1      -9.843  -3.000   0.000  1.00  0.00     0.050 A 
HETATM   13  N   UNL     1      -8.544  -5.250   0.000  1.00  0.00    -0.059 N 
HETATM   14  O   UNL     1      -7.245  -6.000   0.000  1.00  0.00    -0.055 OA
HETATM   15  O   UNL     1      -9.843  -6.000   0.000  1.00  0.00    -0.055 OA
HETATM   16  N   UNL     1      -5.946  -3.750   0.000  1.00  0.00    -0.223 N 
HETATM   17  C   UNL     1      -4.647  -3.000   0.000  1.00  0.00     0.208 A 
HETATM   18  O   UNL     1      -4.647  -1.500   0.000  1.00  0.00    -0.170 OA
HETATM   19  C   UNL     1      -4.647  -6.000   0.000  1.00  0.00     0.152 A 
HETATM   20  O   UNL     1      -5.946  -5.250   0.000  1.00  0.00     0.000 OA
HETATM   21  O   UNL     1      -4.647  -7.500   0.000  1.00  0.00    -0.188 OA
ENDROOT
TORSDOF 0
