REMARK  1 active torsions:
REMARK  status: ('A' for Active; 'I' for Inactive)
REMARK    1  A    between atoms: C_4  and  N_13 
ROOT
HETATM    1  N   UNL     1      -3.028  -0.665   0.000  1.00  0.00    -0.223 NA
HETATM    2  N   UNL     1      -0.627  -1.017   0.000  1.00  0.00    -0.350 N 
HETATM    3  H   UNL     1       0.718  -1.682   0.000  1.00  0.00     0.195 HD
HETATM    4  C   UNL     1      -2.363   0.679   0.000  1.00  0.00     0.216 A 
HETATM    5  C   UNL     1      -0.878   0.462   0.000  1.00  0.00     0.072 A 
HETATM    6  C   UNL     1       1.267  -1.004   0.000  1.00  0.00    -0.058 A 
HETATM    7  C   UNL     1       1.917  -2.356   0.000  1.00  0.00     0.019 A 
HETATM    8  C   UNL     1       2.113   0.235   0.000  1.00  0.00    -0.054 A 
HETATM    9  C   UNL     1       3.412  -2.469   0.000  1.00  0.00     0.004 A 
HETATM   10  C   UNL     1       3.609   0.122   0.000  1.00  0.00     0.021 A 
HETATM   11  C   UNL     1       4.258  -1.230   0.000  1.00  0.00     0.005 A 
HETATM   12  C   UNL     1      -1.955  -1.713   0.000  1.00  0.00     0.230 A 
HETATM   13  C   UNL     1      -0.032   1.700   0.000  1.00  0.00     0.051 A 
HETATM   14  C   UNL     1       1.463   1.587   0.000  1.00  0.00     0.027 A 
ENDROOT
BRANCH   4  15
HETATM   15  N   UNL     1      -3.059   2.008   0.000  1.00  0.00    -0.094 N 
HETATM   16  O   UNL     1      -4.558   2.069   0.000  1.00  0.00    -0.530 OA
HETATM   17  O   UNL     1      -2.257   3.275   0.000  1.00  0.00    -0.530 OA
ENDBRANCH   4  15
TORSDOF 1
