REMARK  4 active torsions:
REMARK  status: ('A' for Active; 'I' for Inactive)
REMARK    1  A    between atoms: C_5  and  N_20 
REMARK    2  A    between atoms: C_16  and  C_22 
REMARK    3  A    between atoms: N_20  and  C_21 
REMARK    4  A    between atoms: C_21  and  C_22 
ROOT
HETATM    1  O   UNL     1      -6.120  -4.399   0.000  1.00  0.00    -0.189 OA
HETATM    2  O   UNL     1      -6.120 -10.399   0.000  1.00  0.00    -0.190 OA
HETATM    3 CL   UNL     1      -3.522  -8.899   0.000  1.00  0.00    -0.079 Cl
HETATM    4  C   UNL     1      -6.120  -5.899   0.000  1.00  0.00     0.145 A 
HETATM    5  C   UNL     1      -4.821  -6.649   0.000  1.00  0.00     0.114 A 
HETATM    6  C   UNL     1      -7.419  -6.649   0.000  1.00  0.00     0.003 A 
HETATM    7  C   UNL     1      -8.718  -5.899   0.000  1.00  0.00     0.028 A 
HETATM    8  C   UNL     1     -10.017  -6.649   0.000  1.00  0.00     0.005 A 
HETATM    9  C   UNL     1      -4.821  -8.149   0.000  1.00  0.00     0.102 A 
HETATM   10  C   UNL     1      -7.419  -8.149   0.000  1.00  0.00     0.002 A 
HETATM   11  C   UNL     1     -10.017  -8.149   0.000  1.00  0.00     0.005 A 
HETATM   12  C   UNL     1      -6.120  -8.899   0.000  1.00  0.00     0.139 A 
HETATM   13  C   UNL     1      -8.718  -8.899   0.000  1.00  0.00     0.028 A 
ENDROOT
BRANCH   5  14
HETATM   14  N   UNL     1      -3.522  -5.899   0.000  1.00  0.00    -0.268 NA
BRANCH  14  15
HETATM   15  C   UNL     1      -3.522  -4.399   0.000  1.00  0.00     0.126 C 
BRANCH  15  16
HETATM   16  C   UNL     1      -2.223  -3.650   0.000  1.00  0.00     0.026 C 
BRANCH  16  17
HETATM   17  C   UNL     1      -0.924  -4.399   0.000  1.00  0.00     0.002 A 
HETATM   18  C   UNL     1       0.375  -3.650   0.000  1.00  0.00     0.000 A 
HETATM   19  C   UNL     1       1.674  -4.399   0.000  1.00  0.00     0.000 A 
HETATM   20  C   UNL     1       1.674  -5.899   0.000  1.00  0.00     0.000 A 
HETATM   21  C   UNL     1       0.375  -6.649   0.000  1.00  0.00     0.000 A 
HETATM   22  C   UNL     1      -0.924  -5.899   0.000  1.00  0.00     0.000 A 
ENDBRANCH  16  17
ENDBRANCH  15  16
ENDBRANCH  14  15
ENDBRANCH   5  14
TORSDOF 4
