REMARK  3 active torsions:
REMARK  status: ('A' for Active; 'I' for Inactive)
REMARK    1  A    between atoms: C_1  and  O_23 
REMARK    2  A    between atoms: C_2  and  O_21 
REMARK    3  A    between atoms: C_3  and  O_26 
ROOT
HETATM    1  C   UNL     1       1.574  -4.774   0.000  1.00  0.00     0.137 A 
HETATM    2  C   UNL     1       0.275  -5.524   0.000  1.00  0.00     0.100 A 
HETATM    3  C   UNL     1       2.873  -5.524   0.000  1.00  0.00     0.140 A 
HETATM    4  C   UNL     1       2.873  -7.024   0.000  1.00  0.00     0.123 A 
HETATM    5  C   UNL     1       0.275  -7.024   0.000  1.00  0.00     0.081 A 
HETATM    6  C   UNL     1       1.574  -7.774   0.000  1.00  0.00     0.009 A 
HETATM    7  C   UNL     1       1.574  -9.274   0.000  1.00  0.00    -0.005 A 
HETATM    8  C   UNL     1       0.275 -10.024   0.000  1.00  0.00    -0.018 A 
HETATM    9  C   UNL     1       2.873 -10.024   0.000  1.00  0.00     0.033 A 
HETATM   10  C   UNL     1      -1.024  -9.274   0.000  1.00  0.00     0.079 A 
HETATM   11  C   UNL     1      -2.324 -10.024   0.000  1.00  0.00     0.094 A 
HETATM   12  C   UNL     1       2.873 -11.524   0.000  1.00  0.00     0.084 A 
HETATM   13  C   UNL     1       0.275 -11.524   0.000  1.00  0.00     0.002 A 
HETATM   14  C   UNL     1      -2.324 -11.524   0.000  1.00  0.00     0.095 A 
HETATM   15  C   UNL     1       1.574 -12.274   0.000  1.00  0.00     0.109 A 
HETATM   16  C   UNL     1      -1.024 -12.274   0.000  1.00  0.00     0.080 A 
HETATM   17  O   UNL     1      -3.623  -9.274   0.000  1.00  0.00    -0.330 OA
HETATM   18  C   UNL     1      -4.922 -10.024   0.000  1.00  0.00     0.181 A 
HETATM   19  O   UNL     1      -3.623 -12.274   0.000  1.00  0.00    -0.330 OA
HETATM   20  C   UNL     1      -4.922 -11.524   0.000  1.00  0.00     0.181 A 
HETATM   21  O   UNL     1       1.574 -13.774   0.000  1.00  0.00    -0.195 OA
HETATM   22  C   UNL     1       4.172  -9.274   0.000  1.00  0.00     0.229 A 
HETATM   23  O   UNL     1       5.471 -10.024   0.000  1.00  0.00    -0.163 OA
HETATM   24  O   UNL     1       4.172  -7.774   0.000  1.00  0.00    -0.282 OA
ENDROOT
BRANCH   1  25
HETATM   25  O   UNL     1       1.573  -3.275   0.000  1.00  0.00    -0.324 OA
HETATM   26  C   UNL     1       2.873  -2.525   0.000  1.00  0.00     0.182 C 
ENDBRANCH   1  25
BRANCH   2  27
HETATM   27  O   UNL     1      -1.024  -4.774   0.000  1.00  0.00    -0.330 OA
HETATM   28  C   UNL     1      -2.324  -5.524   0.000  1.00  0.00     0.181 C 
ENDBRANCH   2  27
BRANCH   3  29
HETATM   29  O   UNL     1       4.172  -4.774   0.000  1.00  0.00    -0.324 OA
HETATM   30  C   UNL     1       5.471  -5.524   0.000  1.00  0.00     0.182 C 
ENDBRANCH   3  29
TORSDOF 3
