REMARK  2 active torsions:
REMARK  status: ('A' for Active; 'I' for Inactive)
REMARK    1  A    between atoms: C_3  and  C_5 
REMARK    2  A    between atoms: C_7  and  N_13 
ROOT
HETATM    1  C   UNL     1      -6.077   0.758   0.000  1.00  0.00     0.080 A 
HETATM    2  C   UNL     1      -4.453  -1.045   0.000  1.00  0.00     0.184 A 
HETATM    3  C   UNL     1      -5.920  -0.733   0.000  1.00  0.00     0.117 A 
HETATM    4  N   UNL     1      -4.707   1.369   0.000  1.00  0.00    -0.176 NA
HETATM    5  N   UNL     1      -3.703   0.254   0.000  1.00  0.00    -0.260 N 
HETATM    6  H   UNL     1      -2.211   0.411   0.000  1.00  0.00     0.190 HD
ENDROOT
BRANCH   1   7
HETATM    7  C   UNL     1      -7.376   1.508   0.000  1.00  0.00    -0.005 A 
HETATM    8  C   UNL     1      -7.376   3.008   0.000  1.00  0.00     0.143 A 
HETATM    9  N   UNL     1      -8.675   3.758   0.000  1.00  0.00    -0.291 NA
HETATM   10  C   UNL     1      -9.974   3.008   0.000  1.00  0.00     0.121 A 
HETATM   11  C   UNL     1      -9.974   1.508   0.000  1.00  0.00     0.030 A 
HETATM   12  C   UNL     1      -8.675   0.758   0.000  1.00  0.00     0.027 A 
ENDBRANCH   1   7
BRANCH   2  13
HETATM   13  N   UNL     1      -3.843  -2.416   0.000  1.00  0.00    -0.100 N 
HETATM   14  O   UNL     1      -2.351  -2.572   0.000  1.00  0.00    -0.531 OA
HETATM   15  O   UNL     1      -4.725  -3.629   0.000  1.00  0.00    -0.531 OA
ENDBRANCH   2  13
TORSDOF 2
