REMARK  2 active torsions:
REMARK  status: ('A' for Active; 'I' for Inactive)
REMARK    1  A    between atoms: C_4  and  AS_15 
REMARK    2  A    between atoms: C_10  and  AS_15 
ROOT
HETATM    1  O   UNL     1      -4.172  -3.275   0.000  1.00  0.00     0.000 OA
HETATM    2 AS   UNL     1      -3.422  -4.574   0.000  1.00  0.00     0.000 As
HETATM    3  O   UNL     1      -2.672  -5.873   0.000  1.00  0.00     0.000 OA
ENDROOT
BRANCH   2   4
HETATM    4  C   UNL     1      -2.123  -3.824   0.000  1.00  0.00    -0.052 A 
HETATM    5  C   UNL     1      -2.123  -2.324   0.000  1.00  0.00     0.021 A 
HETATM    6  C   UNL     1      -0.824  -1.574   0.000  1.00  0.00     0.004 A 
HETATM    7  C   UNL     1       0.475  -2.324   0.000  1.00  0.00     0.001 A 
HETATM    8  C   UNL     1       0.475  -3.824   0.000  1.00  0.00     0.004 A 
HETATM    9  C   UNL     1      -0.824  -4.574   0.000  1.00  0.00     0.021 A 
ENDBRANCH   2   4
BRANCH   2  10
HETATM   10  C   UNL     1      -4.721  -5.324   0.000  1.00  0.00    -0.052 A 
HETATM   11  C   UNL     1      -6.020  -4.574   0.000  1.00  0.00     0.024 A 
HETATM   12  C   UNL     1      -7.319  -5.324   0.000  1.00  0.00     0.037 A 
HETATM   13  C   UNL     1      -7.319  -6.824   0.000  1.00  0.00     0.153 A 
HETATM   14  C   UNL     1      -6.020  -7.574   0.000  1.00  0.00     0.037 A 
HETATM   15  O   UNL     1      -8.618  -7.574   0.000  1.00  0.00    -0.223 OA
HETATM   16  C   UNL     1      -4.721  -6.824   0.000  1.00  0.00     0.024 A 
ENDBRANCH   2  10
TORSDOF 2
