REMARK  2 active torsions:
REMARK  status: ('A' for Active; 'I' for Inactive)
REMARK    1  A    between atoms: C_4  and  AS_15 
REMARK    2  A    between atoms: C_10  and  AS_15 
ROOT
HETATM    1  O   UNL     1       2.123   6.824   0.000  1.00  0.00     0.000 OA
HETATM    2 AS   UNL     1       2.873   5.524   0.000  1.00  0.00     0.000 As
HETATM    3  O   UNL     1       3.623   4.226   0.000  1.00  0.00     0.000 OA
ENDROOT
BRANCH   2   4
HETATM    4  C   UNL     1       4.172   6.274   0.000  1.00  0.00    -0.052 A 
HETATM    5  C   UNL     1       4.172   7.774   0.000  1.00  0.00     0.021 A 
HETATM    6  C   UNL     1       5.471   8.524   0.000  1.00  0.00     0.004 A 
HETATM    7  C   UNL     1       6.770   7.774   0.000  1.00  0.00     0.001 A 
HETATM    8  C   UNL     1       6.770   6.274   0.000  1.00  0.00     0.004 A 
HETATM    9  C   UNL     1       5.471   5.524   0.000  1.00  0.00     0.021 A 
ENDBRANCH   2   4
BRANCH   2  10
HETATM   10  C   UNL     1       1.574   4.774   0.000  1.00  0.00    -0.050 A 
HETATM   11  C   UNL     1       0.275   5.524   0.000  1.00  0.00     0.021 A 
HETATM   12  C   UNL     1      -1.024   4.774   0.000  1.00  0.00     0.006 A 
HETATM   13  C   UNL     1      -1.024   3.275   0.000  1.00  0.00     0.040 A 
HETATM   14  C   UNL     1       0.275   2.525   0.000  1.00  0.00     0.306 A 
HETATM   15  C   UNL     1       1.574   3.275   0.000  1.00  0.00     0.060 A 
HETATM   16  N   UNL     1       0.275   1.024   0.000  1.00  0.00     0.616 N 
ENDBRANCH   2  10
TORSDOF 2
