REMARK  2 active torsions:
REMARK  status: ('A' for Active; 'I' for Inactive)
REMARK    1  A    between atoms: C_14  and  N_29 
REMARK    2  A    between atoms: C_20  and  N_21 
REMARK       I    between atoms: N_21  and  C_22 
REMARK       I    between atoms: N_29  and  C_30 
ROOT
HETATM    1 AS   UNL     1       8.544   7.500   0.000  1.00  0.00     0.000 As
HETATM    2  O   UNL     1       7.794   6.201   0.000  1.00  0.00     0.000 OA
HETATM    3  C   UNL     1      10.794  11.397   0.000  1.00  0.00     0.051 A 
HETATM    4  C   UNL     1       9.294  11.397   0.000  1.00  0.00     0.032 A 
HETATM    5  C   UNL     1      11.544  10.098   0.000  1.00  0.00     0.062 A 
HETATM    6  C   UNL     1      10.794   8.799   0.000  1.00  0.00     0.013 A 
HETATM    7  C   UNL     1       8.544  10.098   0.000  1.00  0.00    -0.026 A 
HETATM    8  C   UNL     1       9.294   8.799   0.000  1.00  0.00    -0.003 A 
HETATM    9  C   UNL     1      11.142   7.500   0.000  1.00  0.00     0.001 A 
HETATM   10  C   UNL     1      12.441   6.750   0.000  1.00  0.00     0.021 A 
HETATM   11  C   UNL     1       9.843   6.750   0.000  1.00  0.00    -0.020 A 
HETATM   12  C   UNL     1      12.441   5.250   0.000  1.00  0.00     0.076 A 
HETATM   13  C   UNL     1       9.843   5.250   0.000  1.00  0.00     0.068 A 
HETATM   14  C   UNL     1      11.142   4.500   0.000  1.00  0.00     0.048 A 
HETATM   15  C   UNL     1       7.245   9.750   0.000  1.00  0.00    -0.030 A 
HETATM   16  C   UNL     1       7.245   8.250   0.000  1.00  0.00    -0.025 A 
HETATM   17  C   UNL     1       5.946  10.500   0.000  1.00  0.00     0.032 A 
HETATM   18  C   UNL     1       5.946   7.500   0.000  1.00  0.00     0.067 A 
HETATM   19  C   UNL     1       4.647   9.750   0.000  1.00  0.00     0.046 A 
HETATM   20  C   UNL     1       4.647   8.250   0.000  1.00  0.00     0.043 A 
HETATM   21  N   UNL     1      13.044  10.098   0.000  1.00  0.00    -0.218 NA
HETATM   22  C   UNL     1      13.794   8.799   0.000  1.00  0.00     0.248 A 
HETATM   23  O   UNL     1      15.294   8.799   0.000  1.00  0.00    -0.160 OA
HETATM   24  C   UNL     1      13.044   7.500   0.000  1.00  0.00    -0.059 A 
ENDROOT
BRANCH  14  25
HETATM   25  N   UNL     1      11.142   3.000   0.000  1.00  0.00    -0.232 NA
HETATM   26  C   UNL     1       9.843   2.250   0.000  1.00  0.00     0.189 C 
HETATM   27  O   UNL     1       8.544   3.000   0.000  1.00  0.00    -0.174 OA
HETATM   28  C   UNL     1       9.843   0.750   0.000  1.00  0.00     0.083 C 
ENDBRANCH  14  25
BRANCH  20  29
HETATM   29  N   UNL     1       3.348   7.500   0.000  1.00  0.00    -0.232 NA
HETATM   30  C   UNL     1       2.049   8.250   0.000  1.00  0.00     0.189 C 
HETATM   31  O   UNL     1       2.049   9.750   0.000  1.00  0.00    -0.174 OA
HETATM   32  C   UNL     1       0.750   7.500   0.000  1.00  0.00     0.083 C 
ENDBRANCH  20  29
TORSDOF 2
