REMARK  6 active torsions:
REMARK  status: ('A' for Active; 'I' for Inactive)
REMARK    1  A    between atoms: C_2  and  C_18 
REMARK    2  A    between atoms: C_9  and  C_15 
REMARK    3  A    between atoms: C_13  and  C_15 
REMARK    4  A    between atoms: C_15  and  C_16 
REMARK    5  A    between atoms: C_16  and  N_17 
REMARK    6  A    between atoms: N_17  and  C_18 
ROOT
HETATM    1  C   UNL     1      -5.571   6.649   0.000  1.00  0.00    -0.012 C 
ENDROOT
BRANCH   1   2
HETATM    2  C   UNL     1      -6.870   5.899   0.000  1.00  0.00    -0.049 A 
HETATM    3  C   UNL     1      -8.169   6.649   0.000  1.00  0.00     0.021 A 
HETATM    4  C   UNL     1      -9.468   5.899   0.000  1.00  0.00     0.004 A 
HETATM    5  C   UNL     1      -9.468   4.399   0.000  1.00  0.00     0.001 A 
HETATM    6  C   UNL     1      -8.169   3.650   0.000  1.00  0.00     0.004 A 
HETATM    7  C   UNL     1      -6.870   4.399   0.000  1.00  0.00     0.021 A 
ENDBRANCH   1   2
BRANCH   1   8
HETATM    8  C   UNL     1      -5.571   8.149   0.000  1.00  0.00     0.118 C 
HETATM    9 CL   UNL     1      -6.870   8.899   0.000  1.00  0.00    -0.109 Cl
ENDBRANCH   1   8
BRANCH   1  10
HETATM   10  C   UNL     1      -4.272   5.899   0.000  1.00  0.00     0.143 C 
BRANCH  10  11
HETATM   11  N   UNL     1      -4.272   4.399   0.000  1.00  0.00    -0.291 NA
BRANCH  11  12
HETATM   12  C   UNL     1      -2.973   3.650   0.000  1.00  0.00     0.120 C 
BRANCH  12  13
HETATM   13  C   UNL     1      -2.973   2.150   0.000  1.00  0.00     0.024 A 
HETATM   14  C   UNL     1      -1.674   1.399   0.000  1.00  0.00     0.002 A 
HETATM   15  C   UNL     1      -1.674  -0.101   0.000  1.00  0.00     0.000 A 
HETATM   16  C   UNL     1      -2.973  -0.851   0.000  1.00  0.00     0.000 A 
HETATM   17  C   UNL     1      -4.272  -0.101   0.000  1.00  0.00     0.000 A 
HETATM   18  C   UNL     1      -4.272   1.399   0.000  1.00  0.00     0.002 A 
ENDBRANCH  12  13
ENDBRANCH  11  12
ENDBRANCH  10  11
ENDBRANCH   1  10
TORSDOF 6
