REMARK  3 active torsions:
REMARK  status: ('A' for Active; 'I' for Inactive)
REMARK    1  A    between atoms: C_5  and  S_18 
REMARK    2  A    between atoms: C_6  and  N_17 
REMARK    3  A    between atoms: N_17  and  S_18 
ROOT
HETATM    1  N   UNL     1       5.799  -1.848   0.000  1.00  0.00    -0.145 NA
ENDROOT
BRANCH   1   2
HETATM    2  C   UNL     1       5.049  -0.549   0.000  1.00  0.00     0.176 A 
HETATM    3  N   UNL     1       5.799   0.750   0.000  1.00  0.00    -0.231 NA
HETATM    4  C   UNL     1       5.049   2.049   0.000  1.00  0.00     0.073 A 
HETATM    5  C   UNL     1       5.799   3.348   0.000  1.00  0.00     0.047 A 
HETATM    6  C   UNL     1       3.549   2.049   0.000  1.00  0.00     0.068 A 
HETATM    7  C   UNL     1       5.049   4.647   0.000  1.00  0.00     0.007 A 
HETATM    8  C   UNL     1       3.549   4.647   0.000  1.00  0.00     0.007 A 
HETATM    9  C   UNL     1       2.799   3.348   0.000  1.00  0.00     0.047 A 
HETATM   10  N   UNL     1       2.799   0.750   0.000  1.00  0.00    -0.266 NA
HETATM   11  C   UNL     1       3.549  -0.549   0.000  1.00  0.00     0.191 A 
ENDBRANCH   1   2
BRANCH   1  12
HETATM   12  S   UNL     1       7.299  -1.848   0.000  1.00  0.00     0.265 S 
HETATM   13  O   UNL     1       7.299  -0.348   0.000  1.00  0.00    -0.203 OA
HETATM   14  O   UNL     1       7.299  -3.348   0.000  1.00  0.00    -0.203 OA
BRANCH  12  15
HETATM   15  C   UNL     1       8.799  -1.848   0.000  1.00  0.00     0.130 A 
HETATM   16  C   UNL     1       9.549  -0.549   0.000  1.00  0.00     0.020 A 
HETATM   17  C   UNL     1      11.049  -0.549   0.000  1.00  0.00     0.040 A 
HETATM   18  C   UNL     1      11.799  -1.848   0.000  1.00  0.00     0.302 A 
HETATM   19  C   UNL     1      11.049  -3.147   0.000  1.00  0.00     0.040 A 
HETATM   20  N   UNL     1      13.299  -1.848   0.000  1.00  0.00     0.616 N 
HETATM   21  C   UNL     1       9.549  -3.147   0.000  1.00  0.00     0.020 A 
ENDBRANCH  12  15
ENDBRANCH   1  12
TORSDOF 3
