REMARK  1 active torsions:
REMARK  status: ('A' for Active; 'I' for Inactive)
REMARK    1  A    between atoms: C_3  and  N_8 
ROOT
HETATM    1  C   UNL     1      -5.721  -2.250   0.000  1.00  0.00     0.213 A 
HETATM    2  C   UNL     1      -7.021  -3.000   0.000  1.00  0.00     0.115 A 
HETATM    3  C   UNL     1      -4.422  -4.500   0.000  1.00  0.00     0.721 A 
HETATM    4  C   UNL     1      -7.021  -4.500   0.000  1.00  0.00     0.037 A 
HETATM    5  N   UNL     1      -5.721  -5.250   0.000  1.00  0.00    -0.194 N 
HETATM    6  H   UNL     1      -5.721  -6.750   0.000  1.00  0.00     0.184 HD
HETATM    7  N   UNL     1      -4.422  -3.000   0.000  1.00  0.00    -0.039 NA
HETATM    8  C   UNL     1      -8.319  -5.250   0.000  1.00  0.00     0.046 C 
HETATM    9  O   UNL     1      -5.721  -0.750   0.000  1.00  0.00    -0.173 OA
ENDROOT
BRANCH   3  10
HETATM   10  N   UNL     1      -3.123  -5.250   0.000  1.00  0.00    -0.116 NA
HETATM   11  H   UNL     1      -1.824  -4.500   0.000  1.00  0.00     0.206 HD
ENDBRANCH   3  10
TORSDOF 1
