REMARK  5 active torsions:
REMARK  status: ('A' for Active; 'I' for Inactive)
REMARK    1  A    between atoms: C_5  and  S_12 
REMARK    2  A    between atoms: CA_6  and  C_9 
REMARK    3  A    between atoms: S_12  and  C_13 
REMARK    4  A    between atoms: C_13  and  C_14 
REMARK    5  A    between atoms: C_14  and  C_15 
ROOT
HETATM    1  N   UNL     1      -8.544  -2.250   0.000  1.00  0.00    -0.332 N 
HETATM    2  H   UNL     1      -8.544  -0.750   0.000  1.00  0.00     0.168 HD
HETATM    3  O   UNL     1      -8.544  -6.750   0.000  1.00  0.00    -0.174 OA
HETATM    4  N   UNL     1      -7.245  -4.500   0.000  1.00  0.00    -0.200 NA
HETATM    5  C   UNL     1      -7.245  -3.000   0.000  1.00  0.00     0.170 A 
HETATM    6  CA  UNL     1      -9.843  -3.000   0.000  1.00  0.00     0.109 A 
HETATM    7  C   UNL     1      -9.843  -4.500   0.000  1.00  0.00     0.124 A 
HETATM    8  C   UNL     1      -8.544  -5.250   0.000  1.00  0.00     0.197 A 
ENDROOT
BRANCH   5   9
HETATM    9  S   UNL     1      -5.946  -2.250   0.000  1.00  0.00    -0.077 SA
BRANCH   9  10
HETATM   10  C   UNL     1      -4.647  -3.000   0.000  1.00  0.00     0.065 C 
BRANCH  10  11
HETATM   11  C   UNL     1      -3.348  -2.250   0.000  1.00  0.00     0.012 C 
BRANCH  11  12
HETATM   12  C   UNL     1      -2.049  -3.000   0.000  1.00  0.00     0.001 C 
HETATM   13  C   UNL     1      -0.750  -2.250   0.000  1.00  0.00     0.000 C 
ENDBRANCH  11  12
ENDBRANCH  10  11
ENDBRANCH   9  10
ENDBRANCH   5   9
BRANCH   6  14
HETATM   14  C   UNL     1     -11.142  -2.250   0.000  1.00  0.00     0.224 C 
HETATM   15  O   UNL     1     -12.441  -3.000   0.000  1.00  0.00    -0.643 OA
HETATM   16  OXT UNL     1     -11.142  -0.750   0.000  1.00  0.00    -0.643 OA
ENDBRANCH   6  14
TORSDOF 5
