REMARK  4 active torsions:
REMARK  status: ('A' for Active; 'I' for Inactive)
REMARK    1  A    between atoms: C_5  and  S_9 
REMARK    2  A    between atoms: S_9  and  C_10 
REMARK    3  A    between atoms: C_10  and  C_11 
REMARK    4  A    between atoms: C_11  and  C_12 
ROOT
HETATM    1  N   UNL     1       2.049   3.000   0.000  1.00  0.00    -0.223 NA
HETATM    2  N   UNL     1       4.647   3.000   0.000  1.00  0.00    -0.212 NA
HETATM    3  C   UNL     1       3.348   5.250   0.000  1.00  0.00     0.094 A 
HETATM    4  C   UNL     1       2.049   4.500   0.000  1.00  0.00     0.046 A 
HETATM    5  C   UNL     1       4.647   4.500   0.000  1.00  0.00     0.092 A 
HETATM    6  C   UNL     1       3.348   2.250   0.000  1.00  0.00     0.237 A 
HETATM    7  C   UNL     1       0.750   5.250   0.000  1.00  0.00     0.048 C 
HETATM    8  N   UNL     1       3.348   0.750   0.000  1.00  0.00    -0.060 NA
ENDROOT
BRANCH   5   9
HETATM    9  S   UNL     1       5.946   5.250   0.000  1.00  0.00    -0.099 SA
BRANCH   9  10
HETATM   10  C   UNL     1       7.245   4.500   0.000  1.00  0.00     0.063 C 
BRANCH  10  11
HETATM   11  C   UNL     1       8.544   5.250   0.000  1.00  0.00     0.012 C 
BRANCH  11  12
HETATM   12  C   UNL     1       9.843   4.500   0.000  1.00  0.00     0.001 C 
HETATM   13  C   UNL     1      11.142   5.250   0.000  1.00  0.00     0.000 C 
ENDBRANCH  11  12
ENDBRANCH  10  11
ENDBRANCH   9  10
ENDBRANCH   5   9
TORSDOF 4
