REMARK  0 active torsions:
REMARK  status: ('A' for Active; 'I' for Inactive)
ROOT
HETATM    1  S   UNL     1       1.310   5.250   0.000  1.00  0.00    -0.064 SA
HETATM    2  H   UNL     1       1.310   2.250   0.000  1.00  0.00     0.169 HD
HETATM    3  N   UNL     1       2.608   3.000   0.000  1.00  0.00    -0.326 N 
HETATM    4  S   UNL     1       3.908   0.750   0.000  1.00  0.00    -0.041 SA
HETATM    5  N   UNL     1       5.207   3.000   0.000  1.00  0.00    -0.338 N 
HETATM    6  H   UNL     1       6.506   2.250   0.000  1.00  0.00     0.168 HD
HETATM    7  C   UNL     1       3.908   5.250   0.000  1.00  0.00     0.094 A 
HETATM    8  C   UNL     1       2.608   4.500   0.000  1.00  0.00     0.097 A 
HETATM    9  C   UNL     1       5.207   4.500   0.000  1.00  0.00     0.020 A 
HETATM   10  C   UNL     1       3.908   2.250   0.000  1.00  0.00     0.176 A 
HETATM   11  C   UNL     1       6.506   5.250   0.000  1.00  0.00     0.045 C 
ENDROOT
TORSDOF 0
