REMARK  2 active torsions:
REMARK  status: ('A' for Active; 'I' for Inactive)
REMARK    1  A    between atoms: C_3  and  AS_15 
REMARK    2  A    between atoms: C_9  and  AS_15 
ROOT
HETATM    1  O   UNL     1      -4.922   1.976   0.000  1.00  0.00     0.000 OA
HETATM    2 AS   UNL     1      -5.672   0.676   0.000  1.00  0.00     0.000 As
HETATM    3  O   UNL     1      -6.422  -0.623   0.000  1.00  0.00     0.000 OA
ENDROOT
BRANCH   2   4
HETATM    4  C   UNL     1      -4.373  -0.074   0.000  1.00  0.00    -0.050 A 
HETATM    5  C   UNL     1      -3.074   0.676   0.000  1.00  0.00     0.021 A 
HETATM    6  C   UNL     1      -1.774  -0.074   0.000  1.00  0.00     0.007 A 
HETATM    7  C   UNL     1      -1.774  -1.574   0.000  1.00  0.00     0.034 A 
HETATM    8  C   UNL     1      -3.074  -2.324   0.000  1.00  0.00     0.156 A 
HETATM    9  C   UNL     1      -4.373  -1.574   0.000  1.00  0.00     0.054 A 
HETATM   10  O   UNL     1      -3.074  -3.824   0.000  1.00  0.00    -0.223 OA
ENDBRANCH   2   4
BRANCH   2  11
HETATM   11  C   UNL     1      -6.971   1.426   0.000  1.00  0.00    -0.050 A 
HETATM   12  C   UNL     1      -6.971   2.926   0.000  1.00  0.00     0.021 A 
HETATM   13  C   UNL     1      -8.270   3.676   0.000  1.00  0.00     0.007 A 
HETATM   14  C   UNL     1      -9.569   2.926   0.000  1.00  0.00     0.034 A 
HETATM   15  C   UNL     1      -9.569   1.426   0.000  1.00  0.00     0.156 A 
HETATM   16  C   UNL     1      -8.270   0.676   0.000  1.00  0.00     0.054 A 
HETATM   17  O   UNL     1     -10.868   0.676   0.000  1.00  0.00    -0.223 OA
ENDBRANCH   2  11
TORSDOF 2
