REMARK  2 active torsions:
REMARK  status: ('A' for Active; 'I' for Inactive)
REMARK    1  A    between atoms: C_5  and  N_14 
REMARK    2  A    between atoms: C_8  and  N_14 
ROOT
HETATM    1  H   UNL     1      -8.524  -2.873   0.000  1.00  0.00     0.167 HD
HETATM    2  N   UNL     1      -7.774  -1.574   0.000  1.00  0.00    -0.349 N 
ENDROOT
BRANCH   2   3
HETATM    3  C   UNL     1      -8.524  -0.275   0.000  1.00  0.00     0.127 A 
HETATM    4  C   UNL     1      -7.774   1.024   0.000  1.00  0.00     0.124 A 
HETATM    5  C   UNL     1      -8.524   2.324   0.000  1.00  0.00     0.139 A 
HETATM    6  N   UNL     1     -10.024   2.324   0.000  1.00  0.00    -0.204 NA
HETATM    7  N   UNL     1      -7.774   3.623   0.000  1.00  0.00    -0.084 NA
HETATM    8  C   UNL     1     -10.774   1.024   0.000  1.00  0.00     0.239 A 
HETATM    9  N   UNL     1     -10.024  -0.275   0.000  1.00  0.00    -0.201 NA
HETATM   10  N   UNL     1     -12.274   1.024   0.000  1.00  0.00    -0.060 NA
ENDBRANCH   2   3
BRANCH   2  11
HETATM   11  C   UNL     1      -6.274  -1.574   0.000  1.00  0.00     0.013 A 
HETATM   12  C   UNL     1      -5.524  -0.275   0.000  1.00  0.00     0.044 A 
HETATM   13  C   UNL     1      -4.024  -0.275   0.000  1.00  0.00     0.035 A 
HETATM   14  C   UNL     1      -3.275  -1.574   0.000  1.00  0.00    -0.009 A 
HETATM   15 BR   UNL     1      -1.774  -1.574   0.000  1.00  0.00    -0.058 Br
HETATM   16  C   UNL     1      -4.024  -2.873   0.000  1.00  0.00     0.035 A 
HETATM   17  C   UNL     1      -5.524  -2.873   0.000  1.00  0.00     0.044 A 
ENDBRANCH   2  11
TORSDOF 2
