REMARK  3 active torsions:
REMARK  status: ('A' for Active; 'I' for Inactive)
REMARK    1  A    between atoms: C_6  and  C_8 
REMARK    2  A    between atoms: C_7  and  C_8 
REMARK    3  A    between atoms: C_16  and  C_17 
ROOT
HETATM    1  C   UNL     2      12.844   8.536   0.000  1.00  0.00     0.166 C 
HETATM    2  S   UNL     2      11.411   8.094   0.000  1.00  0.00     0.117 S 
HETATM    3  O   UNL     2      11.853   6.661   0.000  1.00  0.00    -0.594 OA
HETATM    4  O   UNL     2       9.977   7.652   0.000  1.00  0.00    -0.594 OA
HETATM    5  O   UNL     2      10.968   9.528   0.000  1.00  0.00    -0.594 OA
ENDROOT
TORSDOF 3
