REMARK  1 active torsions:
REMARK  status: ('A' for Active; 'I' for Inactive)
REMARK    1  A    between atoms: C_5  and  C_10 
ROOT
HETATM    1  O   UNL     1      -5.284   2.185   0.000  1.00  0.00    -0.190 OA
HETATM    2  O   UNL     1      -7.924  -2.388   0.000  1.00  0.00    -0.190 OA
HETATM    3  C   UNL     1      -6.399   1.181   0.000  1.00  0.00     0.130 A 
HETATM    4  C   UNL     1      -6.242  -0.311   0.000  1.00  0.00     0.063 A 
HETATM    5  C   UNL     1      -7.866   1.493   0.000  1.00  0.00     0.001 A 
HETATM    6  C   UNL     1      -8.616   2.792   0.000  1.00  0.00     0.028 A 
HETATM    7  C   UNL     1     -10.116   2.792   0.000  1.00  0.00     0.005 A 
HETATM    8  C   UNL     1      -7.612  -0.921   0.000  1.00  0.00     0.130 A 
HETATM    9  C   UNL     1      -8.616   0.194   0.000  1.00  0.00     0.001 A 
HETATM   10  C   UNL     1     -10.866   1.493   0.000  1.00  0.00     0.005 A 
HETATM   11  C   UNL     1     -10.116   0.194   0.000  1.00  0.00     0.028 A 
ENDROOT
BRANCH   4  12
HETATM   12  C   UNL     1      -4.943  -1.061   0.000  1.00  0.00     0.058 A 
HETATM   13  N   UNL     1      -3.644  -0.311   0.000  1.00  0.00    -0.275 NA
HETATM   14  C   UNL     1      -2.345  -1.061   0.000  1.00  0.00     0.125 A 
HETATM   15  C   UNL     1      -2.345  -2.561   0.000  1.00  0.00     0.027 A 
HETATM   16  C   UNL     1      -3.644  -3.311   0.000  1.00  0.00     0.008 A 
HETATM   17  C   UNL     1      -4.943  -2.561   0.000  1.00  0.00     0.046 A 
ENDBRANCH   4  12
TORSDOF 1
