REMARK  0 active torsions:
REMARK  status: ('A' for Active; 'I' for Inactive)
ROOT
HETATM    1  H   UNL     1       3.649   8.169   0.000  1.00  0.00     0.285 HD
HETATM    2  N   UNL     1       2.899   4.272   0.000  1.00  0.00    -0.002 N 
HETATM    3  H   UNL     1       3.649   2.973   0.000  1.00  0.00     0.285 HD
HETATM    4  N   UNL     1       2.899   6.870   0.000  1.00  0.00    -0.001 N 
HETATM    5  C   UNL     1       1.399   6.870   0.000  1.00  0.00     0.189 A 
HETATM    6  C   UNL     1       0.649   5.571   0.000  1.00  0.00     0.059 A 
HETATM    7  C   UNL     1       1.399   4.272   0.000  1.00  0.00     0.164 A 
HETATM    8  C   UNL     1       4.531   6.784   0.000  1.00  0.00     0.243 A 
HETATM    9  C   UNL     1       3.649   5.571   0.000  1.00  0.00     0.367 A 
HETATM   10  C   UNL     1       5.957   6.321   0.000  1.00  0.00     0.037 A 
HETATM   11  C   UNL     1       5.957   4.821   0.000  1.00  0.00     0.037 A 
HETATM   12  C   UNL     1       4.531   4.357   0.000  1.00  0.00     0.243 A 
HETATM   13  C   UNL     1      -0.011   3.759   0.000  1.00  0.00     0.031 C 
HETATM   14  C   UNL     1       0.649   8.169   0.000  1.00  0.00     0.033 C 
HETATM   15  C   UNL     1       1.659   2.795   0.000  1.00  0.00     0.031 C 
ENDROOT
TORSDOF 0
