REMARK  1 active torsions:
REMARK  status: ('A' for Active; 'I' for Inactive)
REMARK    1  A    between atoms: C_9  and  N_15 
ROOT
HETATM    1  N   UNL     1       2.731   5.250   0.000  1.00  0.00    -0.270 NA
HETATM    2  N   UNL     1       5.329   6.750   0.000  1.00  0.00    -0.270 NA
HETATM    3  C   UNL     1       6.628   7.500   0.000  1.00  0.00     0.126 A 
HETATM    4  C   UNL     1       7.928   6.750   0.000  1.00  0.00     0.031 A 
HETATM    5  C   UNL     1       7.928   5.250   0.000  1.00  0.00     0.031 A 
HETATM    6  C   UNL     1       6.628   4.500   0.000  1.00  0.00     0.015 A 
HETATM    7  C   UNL     1       5.329   5.250   0.000  1.00  0.00     0.090 A 
HETATM    8  C   UNL     1       4.030   4.500   0.000  1.00  0.00     0.085 A 
HETATM    9  C   UNL     1       6.628   3.000   0.000  1.00  0.00     0.106 A 
HETATM   10  C   UNL     1       4.030   3.000   0.000  1.00  0.00    -0.019 A 
HETATM   11  C   UNL     1       5.329   2.250   0.000  1.00  0.00     0.073 A 
HETATM   12  C   UNL     1       2.731   2.250   0.000  1.00  0.00     0.026 A 
HETATM   13  C   UNL     1       1.432   3.000   0.000  1.00  0.00     0.031 A 
HETATM   14  C   UNL     1       1.432   4.500   0.000  1.00  0.00     0.126 A 
ENDROOT
BRANCH   9  15
HETATM   15  N   UNL     1       7.928   2.250   0.000  1.00  0.00    -0.118 N 
HETATM   16  O   UNL     1       9.226   3.000   0.000  1.00  0.00    -0.532 OA
HETATM   17  O   UNL     1       7.928   0.750   0.000  1.00  0.00    -0.532 OA
ENDBRANCH   9  15
TORSDOF 1
