REMARK  4 active torsions:
REMARK  status: ('A' for Active; 'I' for Inactive)
REMARK    1  A    between atoms: C_3  and  C_7 
REMARK    2  A    between atoms: C_7  and  C_8 
REMARK    3  A    between atoms: C_8  and  C_9 
REMARK    4  A    between atoms: C_9  and  C_10 
ROOT
HETATM    1  N   UNL     1       0.750   3.000   0.000  1.00  0.00    -0.296 NA
HETATM    2  C   UNL     1       2.049   3.750   0.000  1.00  0.00     0.120 A 
HETATM    3  C   UNL     1       3.348   3.000   0.000  1.00  0.00     0.024 A 
HETATM    4  C   UNL     1       3.348   1.500   0.000  1.00  0.00     0.004 A 
HETATM    5  C   UNL     1       2.049   0.750   0.000  1.00  0.00     0.026 A 
HETATM    6  C   UNL     1       0.750   1.500   0.000  1.00  0.00     0.120 A 
ENDROOT
BRANCH   3   7
HETATM    7  C   UNL     1       4.647   3.750   0.000  1.00  0.00     0.002 C 
BRANCH   7   8
HETATM    8  C   UNL     1       5.946   3.000   0.000  1.00  0.00     0.000 C 
BRANCH   8   9
HETATM    9  C   UNL     1       7.245   3.750   0.000  1.00  0.00     0.000 C 
BRANCH   9  10
HETATM   10  C   UNL     1       8.544   3.000   0.000  1.00  0.00     0.000 C 
HETATM   11  C   UNL     1       9.843   3.750   0.000  1.00  0.00     0.000 C 
ENDBRANCH   9  10
ENDBRANCH   8   9
ENDBRANCH   7   8
ENDBRANCH   3   7
TORSDOF 4
