REMARK  1 active torsions:
REMARK  status: ('A' for Active; 'I' for Inactive)
REMARK    1  A    between atoms: N_3  and  C_14 
ROOT
HETATM    1  N   UNL     1      -3.573  -4.429   0.000  1.00  0.00    -0.231 NA
HETATM    2  N   UNL     1      -3.572  -7.429   0.000  1.00  0.00    -0.250 NA
HETATM    3  C   UNL     1      -6.171  -4.429   0.000  1.00  0.00     0.047 A 
HETATM    4  C   UNL     1      -7.470  -5.179   0.000  1.00  0.00     0.007 A 
HETATM    5  C   UNL     1      -4.872  -5.179   0.000  1.00  0.00     0.074 A 
HETATM    6  C   UNL     1      -4.872  -6.679   0.000  1.00  0.00     0.072 A 
HETATM    7  C   UNL     1      -7.470  -6.679   0.000  1.00  0.00     0.007 A 
HETATM    8  C   UNL     1      -6.171  -7.429   0.000  1.00  0.00     0.047 A 
HETATM    9  C   UNL     1      -2.273  -5.179   0.000  1.00  0.00     0.153 A 
HETATM   10  C   UNL     1      -2.273  -6.679   0.000  1.00  0.00     0.093 A 
HETATM   11  C   UNL     1      -0.975  -7.429   0.000  1.00  0.00     0.055 C 
ENDROOT
BRANCH   9  12
HETATM   12  N   UNL     1      -0.975  -4.429   0.000  1.00  0.00    -0.333 N 
HETATM   13  C   UNL     1      -0.818  -2.937   0.000  1.00  0.00     0.103 A 
HETATM   14  C   UNL     1       0.649  -2.625   0.000  1.00  0.00     0.026 A 
HETATM   15  C   UNL     1       1.399  -3.924   0.000  1.00  0.00     0.026 A 
HETATM   16  C   UNL     1       0.396  -5.039   0.000  1.00  0.00     0.103 A 
ENDBRANCH   9  12
TORSDOF 1
