REMARK  5 active torsions:
REMARK  status: ('A' for Active; 'I' for Inactive)
REMARK    1  A    between atoms: C_12  and  N_17 
REMARK    2  A    between atoms: C_16  and  S_20 
REMARK    3  A    between atoms: S_20  and  C_21 
REMARK    4  A    between atoms: C_21  and  C_22 
REMARK    5  A    between atoms: C_22  and  C_23 
ROOT
HETATM    1  S   UNL     1      -9.649   2.973   0.000  1.00  0.00    -0.099 SA
ENDROOT
BRANCH   1   2
HETATM    2  C   UNL     1     -11.149   2.973   0.000  1.00  0.00     0.202 A 
HETATM    3  N   UNL     1     -12.031   1.760   0.000  1.00  0.00    -0.254 NA
HETATM    4  C   UNL     1     -13.458   2.223   0.000  1.00  0.00     0.058 A 
HETATM    5  C   UNL     1     -13.458   3.723   0.000  1.00  0.00     0.025 A 
HETATM    6  C   UNL     1     -14.757   1.473   0.000  1.00  0.00     0.052 A 
HETATM    7  C   UNL     1     -14.757   4.473   0.000  1.00  0.00     0.080 A 
HETATM    8  S   UNL     1     -12.031   4.187   0.000  1.00  0.00    -0.082 SA
HETATM    9  C   UNL     1     -16.056   3.723   0.000  1.00  0.00     0.087 A 
HETATM   10  C   UNL     1     -16.056   2.223   0.000  1.00  0.00     0.052 A 
BRANCH   9  11
HETATM   11  N   UNL     1     -17.355   4.473   0.000  1.00  0.00    -0.122 N 
HETATM   12  O   UNL     1     -18.654   3.723   0.000  1.00  0.00    -0.532 OA
HETATM   13  O   UNL     1     -17.355   5.973   0.000  1.00  0.00    -0.532 OA
ENDBRANCH   9  11
ENDBRANCH   1   2
BRANCH   1  14
HETATM   14  C   UNL     1      -8.899   1.674   0.000  1.00  0.00     0.114 C 
BRANCH  14  15
HETATM   15  C   UNL     1      -7.399   1.674   0.000  1.00  0.00     0.112 C 
HETATM   16  O   UNL     1      -6.649   2.973   0.000  1.00  0.00    -0.195 OA
BRANCH  15  17
HETATM   17  C   UNL     1      -6.649   0.375   0.000  1.00  0.00    -0.018 A 
HETATM   18  C   UNL     1      -5.149   0.375   0.000  1.00  0.00     0.045 A 
HETATM   19  C   UNL     1      -4.399  -0.924   0.000  1.00  0.00    -0.048 A 
HETATM   20  C   UNL     1      -2.900  -0.924   0.000  1.00  0.00     0.022 A 
HETATM   21  C   UNL     1      -5.149  -2.223   0.000  1.00  0.00    -0.051 A 
HETATM   22  C   UNL     1      -2.150  -2.223   0.000  1.00  0.00     0.005 A 
HETATM   23  C   UNL     1      -2.900  -3.522   0.000  1.00  0.00     0.005 A 
HETATM   24  C   UNL     1      -4.399  -3.522   0.000  1.00  0.00     0.021 A 
HETATM   25  C   UNL     1      -6.649  -2.223   0.000  1.00  0.00     0.026 A 
HETATM   26  C   UNL     1      -7.399  -0.924   0.000  1.00  0.00     0.028 A 
ENDBRANCH  15  17
ENDBRANCH  14  15
ENDBRANCH   1  14
TORSDOF 5
