REMARK  1 active torsions:
REMARK  status: ('A' for Active; 'I' for Inactive)
REMARK    1  A    between atoms: C_8  and  S_10 
ROOT
HETATM    1  H   UNL     1      -5.721  -0.750   0.000  1.00  0.00     0.167 HD
HETATM    2  N   UNL     1      -5.721  -2.250   0.000  1.00  0.00    -0.340 N 
HETATM    3  S   UNL     1      -5.721  -6.750   0.000  1.00  0.00    -0.062 SA
HETATM    4  N   UNL     1      -4.422  -4.500   0.000  1.00  0.00    -0.216 NA
HETATM    5  C   UNL     1      -7.021  -3.000   0.000  1.00  0.00     0.020 A 
HETATM    6  C   UNL     1      -7.021  -4.500   0.000  1.00  0.00     0.096 A 
HETATM    7  C   UNL     1      -5.721  -5.250   0.000  1.00  0.00     0.121 A 
HETATM    8  C   UNL     1      -4.422  -3.000   0.000  1.00  0.00     0.168 A 
HETATM    9  C   UNL     1      -8.319  -2.250   0.000  1.00  0.00     0.045 C 
ENDROOT
BRANCH   8  10
HETATM   10  S   UNL     1      -3.123  -2.250   0.000  1.00  0.00    -0.076 SA
HETATM   11  C   UNL     1      -1.824  -3.000   0.000  1.00  0.00     0.077 C 
ENDBRANCH   8  10
TORSDOF 1
