REMARK  5 active torsions:
REMARK  status: ('A' for Active; 'I' for Inactive)
REMARK    1  A    between atoms: S_1  and  C_4 
REMARK    2  A    between atoms: S_1  and  C_9 
REMARK    3  A    between atoms: C_5  and  N_22 
REMARK    4  A    between atoms: C_12  and  C_20 
REMARK    5  A    between atoms: C_15  and  C_20 
ROOT
HETATM    1  C   UNL     1       1.674   8.899   0.000  1.00  0.00     0.015 A 
HETATM    2  C   UNL     1       2.973   8.149   0.000  1.00  0.00     0.048 A 
HETATM    3  C   UNL     1       0.375   8.149   0.000  1.00  0.00     0.025 A 
HETATM    4  C   UNL     1       2.973   6.649   0.000  1.00  0.00     0.015 A 
HETATM    5  C   UNL     1       0.375   6.649   0.000  1.00  0.00    -0.019 A 
HETATM    6  C   UNL     1       1.674   5.899   0.000  1.00  0.00     0.025 A 
ENDROOT
BRANCH   2   7
HETATM    7  S   UNL     1       4.272   8.899   0.000  1.00  0.00    -0.142 SA
BRANCH   7   8
HETATM    8  C   UNL     1       4.272  10.399   0.000  1.00  0.00     0.048 A 
HETATM    9  C   UNL     1       2.973  11.149   0.000  1.00  0.00     0.017 A 
HETATM   10  C   UNL     1       2.973  12.649   0.000  1.00  0.00     0.047 A 
HETATM   11  C   UNL     1       4.272  13.399   0.000  1.00  0.00     0.082 A 
HETATM   12  C   UNL     1       5.571  12.649   0.000  1.00  0.00     0.047 A 
HETATM   13  C   UNL     1       5.571  11.149   0.000  1.00  0.00     0.017 A 
BRANCH  11  14
HETATM   14  N   UNL     1       4.272  14.899   0.000  1.00  0.00    -0.122 N 
HETATM   15  O   UNL     1       2.973  15.649   0.000  1.00  0.00    -0.532 OA
HETATM   16  O   UNL     1       5.571  15.649   0.000  1.00  0.00    -0.532 OA
ENDBRANCH  11  14
ENDBRANCH   7   8
ENDBRANCH   2   7
BRANCH   5  17
HETATM   17  C   UNL     1      -0.924   5.899   0.000  1.00  0.00     0.115 C 
HETATM   18  O   UNL     1      -2.223   6.649   0.000  1.00  0.00    -0.192 OA
BRANCH  17  19
HETATM   19  C   UNL     1      -0.924   4.399   0.000  1.00  0.00    -0.019 A 
HETATM   20  C   UNL     1      -2.223   3.650   0.000  1.00  0.00     0.024 A 
HETATM   21  C   UNL     1      -2.223   2.150   0.000  1.00  0.00     0.004 A 
HETATM   22  C   UNL     1      -0.924   1.399   0.000  1.00  0.00     0.001 A 
HETATM   23  C   UNL     1       0.375   2.150   0.000  1.00  0.00     0.004 A 
HETATM   24  C   UNL     1       0.375   3.650   0.000  1.00  0.00     0.024 A 
ENDBRANCH  17  19
ENDBRANCH   5  17
TORSDOF 5
