REMARK  0 active torsions:
REMARK  status: ('A' for Active; 'I' for Inactive)
ROOT
HETATM    1  N   UNL     1      -1.574   3.275   0.000  1.00  0.00    -0.218 NA
HETATM    2 BR   UNL     1      -0.275   7.024   0.000  1.00  0.00    -0.084 Br
HETATM    3  N   UNL     1       1.024   3.275   0.000  1.00  0.00    -0.195 NA
HETATM    4  C   UNL     1      -0.275   5.524   0.000  1.00  0.00     0.078 A 
HETATM    5  C   UNL     1       1.024   4.774   0.000  1.00  0.00     0.172 A 
HETATM    6  C   UNL     1      -1.574   4.774   0.000  1.00  0.00     0.071 A 
HETATM    7  C   UNL     1       1.024   7.774   0.000  1.00  0.00     0.022 A 
HETATM    8  C   UNL     1       1.024   9.274   0.000  1.00  0.00     0.048 A 
HETATM    9  C   UNL     1       2.324   7.024   0.000  1.00  0.00     0.062 A 
HETATM   10  C   UNL     1       2.324  10.024   0.000  1.00  0.00     0.083 A 
HETATM   11  C   UNL     1       3.623   7.774   0.000  1.00  0.00     0.047 A 
HETATM   12  C   UNL     1       3.623   9.274   0.000  1.00  0.00     0.021 A 
HETATM   13  C   UNL     1      -0.275   2.525   0.000  1.00  0.00     0.239 A 
HETATM   14  C   UNL     1      -2.873   5.524   0.000  1.00  0.00     0.053 C 
HETATM   15  N   UNL     1      -0.275   1.024   0.000  1.00  0.00    -0.060 NA
HETATM   16  N   UNL     1       2.324   5.524   0.000  1.00  0.00    -0.231 NA
HETATM   17  C   UNL     1       2.324  11.524   0.000  1.00  0.00    -0.006 C 
HETATM   18  N   UNL     1       2.324  13.024   0.000  1.00  0.00    -0.101 N 
ENDROOT
TORSDOF 0
