REMARK  4 active torsions:
REMARK  status: ('A' for Active; 'I' for Inactive)
REMARK    1  A    between atoms: C_2  and  N_3 
REMARK    2  A    between atoms: C_2  and  C_22 
REMARK    3  A    between atoms: N_3  and  C_6 
REMARK    4  A    between atoms: C_20  and  C_22 
ROOT
HETATM    1  C   UNL     1       2.973  -2.150   0.000  1.00  0.00    -0.022 C 
HETATM    2  C   UNL     1       5.571  -0.649   0.000  1.00  0.00     0.070 A 
HETATM    3  C   UNL     1       4.272   0.101   0.000  1.00  0.00    -0.012 A 
HETATM    4  C   UNL     1       6.870   0.101   0.000  1.00  0.00     0.051 A 
HETATM    5  C   UNL     1       4.272   1.601   0.000  1.00  0.00     0.025 A 
HETATM    6  C   UNL     1       6.870   1.601   0.000  1.00  0.00     0.007 A 
HETATM    7  C   UNL     1       5.571   2.350   0.000  1.00  0.00     0.005 A 
HETATM    8  C   UNL     1       2.973  -0.649   0.000  1.00  0.00     0.112 C 
HETATM    9  N   UNL     1       2.973  -3.650   0.000  1.00  0.00    -0.179 NA
HETATM   10  C   UNL     1       4.272  -4.399   0.000  1.00  0.00     0.240 C 
HETATM   11  O   UNL     1       4.272  -5.899   0.000  1.00  0.00    -0.167 OA
HETATM   12  C   UNL     1       5.571  -3.650   0.000  1.00  0.00     0.135 C 
HETATM   13  O   UNL     1       5.571  -2.150   0.000  1.00  0.00    -0.312 OA
ENDROOT
BRANCH  12  14
HETATM   14  C   UNL     1       6.870  -4.399   0.000  1.00  0.00     0.143 C 
BRANCH  14  15
HETATM   15  C   UNL     1       6.870  -5.899   0.000  1.00  0.00    -0.023 C 
BRANCH  15  16
HETATM   16  N   UNL     1       6.870  -7.399   0.000  1.00  0.00    -0.216 NA
BRANCH  16  17
HETATM   17  C   UNL     1       8.169  -8.149   0.000  1.00  0.00     0.045 A 
HETATM   18  C   UNL     1       9.468  -7.399   0.000  1.00  0.00     0.042 A 
HETATM   19  C   UNL     1      10.767  -8.149   0.000  1.00  0.00     0.006 A 
HETATM   20  C   UNL     1      10.767  -9.649   0.000  1.00  0.00     0.001 A 
HETATM   21  C   UNL     1       9.468 -10.399   0.000  1.00  0.00     0.006 A 
HETATM   22  C   UNL     1       8.169  -9.649   0.000  1.00  0.00     0.042 A 
ENDBRANCH  16  17
ENDBRANCH  15  16
ENDBRANCH  14  15
ENDBRANCH  12  14
TORSDOF 4
