REMARK  1 active torsions:
REMARK  status: ('A' for Active; 'I' for Inactive)
REMARK    1  A    between atoms: C_3  and  C_5 
ROOT
HETATM    1  O   UNL     1       1.190  -7.880   0.000  1.00  0.00    -0.312 OA
HETATM    2  C   UNL     1      -0.774  -6.453   0.000  1.00  0.00     0.087 A 
HETATM    3  C   UNL     1       0.726  -6.453   0.000  1.00  0.00     0.074 A 
HETATM    4  C   UNL     1      -1.237  -7.880   0.000  1.00  0.00     0.090 A 
HETATM    5  C   UNL     1      -0.024  -8.761   0.000  1.00  0.00     0.101 A 
HETATM    6  C   UNL     1      -0.024 -10.261   0.000  1.00  0.00     0.019 A 
HETATM    7  C   UNL     1      -1.323 -11.011   0.000  1.00  0.00     0.079 A 
HETATM    8  C   UNL     1       1.275 -11.011   0.000  1.00  0.00     0.030 A 
HETATM    9  C   UNL     1       1.275 -12.511   0.000  1.00  0.00     0.005 A 
HETATM   10  C   UNL     1      -1.323 -12.511   0.000  1.00  0.00     0.051 A 
HETATM   11  C   UNL     1      -0.024 -13.261   0.000  1.00  0.00     0.007 A 
HETATM   12  P   UNL     1      -2.664  -8.343   0.000  1.00  0.00     0.290 P 
HETATM   13  O   UNL     1      -3.127  -6.917   0.000  1.00  0.00    -0.643 OA
HETATM   14  O   UNL     1      -4.090  -8.807   0.000  1.00  0.00    -0.643 OA
HETATM   15  O   UNL     1      -2.200  -9.770   0.000  1.00  0.00    -0.269 OA
ENDROOT
BRANCH   3  16
HETATM   16  C   UNL     1       1.608  -5.239   0.000  1.00  0.00    -0.025 A 
HETATM   17  C   UNL     1       3.100  -5.396   0.000  1.00  0.00     0.024 A 
HETATM   18  C   UNL     1       3.982  -4.183   0.000  1.00  0.00     0.004 A 
HETATM   19  C   UNL     1       3.371  -2.813   0.000  1.00  0.00     0.001 A 
HETATM   20  C   UNL     1       1.880  -2.656   0.000  1.00  0.00     0.004 A 
HETATM   21  C   UNL     1       0.998  -3.869   0.000  1.00  0.00     0.024 A 
ENDBRANCH   3  16
TORSDOF 1
