REMARK  2 active torsions:
REMARK  status: ('A' for Active; 'I' for Inactive)
REMARK    1  A    between atoms: N_6  and  C_17 
REMARK    2  A    between atoms: C_13  and  C_18 
ROOT
HETATM    1  N   UNL     1     -11.908  -0.017   0.000  1.00  0.00    -0.234 NA
HETATM    2  S   UNL     1     -12.180   2.567   0.000  1.00  0.00    -0.056 SA
HETATM    3  N   UNL     1      -9.535  -1.074   0.000  1.00  0.00    -0.339 N 
HETATM    4  H   UNL     1      -8.653  -2.288   0.000  1.00  0.00     0.164 HD
HETATM    5  N   UNL     1      -8.925   2.723   0.000  1.00  0.00    -0.240 NA
HETATM    6  N   UNL     1      -7.498   0.760   0.000  1.00  0.00    -0.277 N 
HETATM    7  C   UNL     1     -11.298   1.353   0.000  1.00  0.00     0.153 A 
HETATM    8  C   UNL     1      -9.806   1.510   0.000  1.00  0.00     0.138 A 
HETATM    9  C   UNL     1      -8.925   0.296   0.000  1.00  0.00     0.142 A 
HETATM   10  C   UNL     1      -7.498   2.260   0.000  1.00  0.00     0.238 A 
HETATM   11  C   UNL     1     -11.027  -1.231   0.000  1.00  0.00     0.230 A 
ENDROOT
BRANCH   6  12
HETATM   12  C   UNL     1      -6.285  -0.122   0.000  1.00  0.00     0.137 A 
HETATM   13  O   UNL     1      -4.914   0.488   0.000  1.00  0.00    -0.319 OA
HETATM   14  C   UNL     1      -3.701  -0.393   0.000  1.00  0.00     0.156 A 
HETATM   15  C   UNL     1      -3.858  -1.885   0.000  1.00  0.00     0.033 A 
HETATM   16  C   UNL     1      -5.228  -2.495   0.000  1.00  0.00     0.011 A 
HETATM   17  C   UNL     1      -6.441  -1.614   0.000  1.00  0.00     0.070 A 
BRANCH  14  18
HETATM   18  C   UNL     1      -2.331   0.217   0.000  1.00  0.00     0.212 C 
HETATM   19  O   UNL     1      -1.117  -0.665   0.000  1.00  0.00    -0.218 OA
ENDBRANCH  14  18
ENDBRANCH   6  12
TORSDOF 2
