REMARK  1 active torsions:
REMARK  status: ('A' for Active; 'I' for Inactive)
REMARK    1  A    between atoms: C_10  and  C_12 
ROOT
HETATM    1  H   UNL     1      -5.203   7.512   0.000  1.00  0.00     0.160 HD
HETATM    2  N   UNL     1      -5.667   6.085   0.000  1.00  0.00    -0.373 N 
HETATM    3  C   UNL     1      -8.392   6.372   0.000  1.00  0.00     0.043 A 
HETATM    4  C   UNL     1      -7.093   5.622   0.000  1.00  0.00     0.026 A 
HETATM    5  C   UNL     1      -9.691   5.622   0.000  1.00  0.00     0.006 A 
HETATM    6  C   UNL     1      -7.093   4.122   0.000  1.00  0.00    -0.014 A 
HETATM    7  C   UNL     1      -9.691   4.122   0.000  1.00  0.00     0.005 A 
HETATM    8  C   UNL     1      -8.392   3.372   0.000  1.00  0.00     0.027 A 
HETATM    9  C   UNL     1      -5.667   3.658   0.000  1.00  0.00    -0.009 A 
HETATM   10  C   UNL     1      -4.785   4.872   0.000  1.00  0.00     0.124 A 
ENDROOT
BRANCH   9  11
HETATM   11  C   UNL     1      -5.203   2.232   0.000  1.00  0.00    -0.023 A 
HETATM   12  C   UNL     1      -3.776   1.768   0.000  1.00  0.00     0.120 A 
HETATM   13  N   UNL     1      -3.776   0.268   0.000  1.00  0.00    -0.363 N 
HETATM   14  C   UNL     1      -5.203  -0.196   0.000  1.00  0.00     0.102 A 
HETATM   15  C   UNL     1      -2.563  -0.614   0.000  1.00  0.00     0.121 C 
HETATM   16  C   UNL     1      -6.085   1.018   0.000  1.00  0.00     0.047 A 
ENDBRANCH   9  11
TORSDOF 1
