REMARK  3 active torsions:
REMARK  status: ('A' for Active; 'I' for Inactive)
REMARK    1  A    between atoms: C_2  and  C_5 
REMARK    2  A    between atoms: O_4  and  C_5 
REMARK    3  A    between atoms: O_4  and  C_10 
ROOT
HETATM    1  C   UNL     1      -3.520   0.683   0.000  1.00  0.00     0.152 A 
HETATM    2  C   UNL     1      -4.890   0.073   0.000  1.00  0.00     0.096 A 
HETATM    3  C   UNL     1      -4.734  -1.419   0.000  1.00  0.00     0.232 A 
HETATM    4  N   UNL     1      -3.266  -1.730   0.000  1.00  0.00    -0.149 NA
HETATM    5  N   UNL     1      -2.516  -0.431   0.000  1.00  0.00    -0.290 N 
HETATM    6  H   UNL     1      -1.024  -0.275   0.000  1.00  0.00     0.184 HD
HETATM    7  O   UNL     1      -5.848  -2.422   0.000  1.00  0.00    -0.168 OA
ENDROOT
BRANCH   2   8
HETATM    8  C   UNL     1      -6.189   0.823   0.000  1.00  0.00     0.230 C 
HETATM    9  O   UNL     1      -6.189   2.323   0.000  1.00  0.00    -0.163 OA
BRANCH   8  10
HETATM   10  O   UNL     1      -7.488   0.073   0.000  1.00  0.00    -0.309 OA
BRANCH  10  11
HETATM   11  C   UNL     1      -8.787   0.823   0.000  1.00  0.00     0.151 C 
HETATM   12  C   UNL     1      -8.787   2.323   0.000  1.00  0.00     0.035 C 
ENDBRANCH  10  11
ENDBRANCH   8  10
ENDBRANCH   2   8
TORSDOF 3
