REMARK  2 active torsions:
REMARK  status: ('A' for Active; 'I' for Inactive)
REMARK    1  A    between atoms: C_3  and  N_6 
REMARK    2  A    between atoms: C_4  and  N_10 
REMARK       I    between atoms: N_10  and  C_11 
ROOT
HETATM    1  N   UNL     1      -7.837   0.786   0.000  1.00  0.00    -0.222 NA
HETATM    2  N   UNL     1      -5.874  -0.641   0.000  1.00  0.00    -0.309 N 
HETATM    3  C   UNL     1      -6.624   1.667   0.000  1.00  0.00     0.239 A 
HETATM    4  C   UNL     1      -5.410   0.786   0.000  1.00  0.00     0.184 A 
HETATM    5  C   UNL     1      -7.374  -0.641   0.000  1.00  0.00     0.234 A 
HETATM    6  C   UNL     1      -4.992  -1.854   0.000  1.00  0.00     0.129 C 
ENDROOT
BRANCH   4   7
HETATM    7  N   UNL     1      -3.984   1.249   0.000  1.00  0.00    -0.199 NA
HETATM    8  C   UNL     1      -2.869   0.246   0.000  1.00  0.00     0.225 C 
HETATM    9  N   UNL     1      -3.181  -1.222   0.000  1.00  0.00    -0.065 NA
HETATM   10  N   UNL     1      -1.442   0.709   0.000  1.00  0.00    -0.065 NA
ENDBRANCH   4   7
BRANCH   3  11
HETATM   11  N   UNL     1      -6.624   3.167   0.000  1.00  0.00    -0.092 N 
HETATM   12  O   UNL     1      -7.923   3.917   0.000  1.00  0.00    -0.530 OA
HETATM   13  O   UNL     1      -5.325   3.917   0.000  1.00  0.00    -0.530 OA
ENDBRANCH   3  11
TORSDOF 2
