REMARK  6 active torsions:
REMARK  status: ('A' for Active; 'I' for Inactive)
REMARK    1  A    between atoms: C_3  and  C_9 
REMARK    2  A    between atoms: C_3  and  C_12 
REMARK    3  A    between atoms: C_3  and  N_25 
REMARK    4  A    between atoms: C_16  and  N_24 
REMARK    5  A    between atoms: C_19  and  N_21 
REMARK    6  A    between atoms: N_24  and  N_25 
ROOT
HETATM    1  C   UNL     1      -0.924  -5.899   0.000  1.00  0.00     0.087 C 
ENDROOT
BRANCH   1   2
HETATM    2  C   UNL     1      -0.924  -4.399   0.000  1.00  0.00    -0.025 A 
HETATM    3  C   UNL     1       0.375  -3.650   0.000  1.00  0.00     0.024 A 
HETATM    4  C   UNL     1       0.375  -2.150   0.000  1.00  0.00     0.004 A 
HETATM    5  C   UNL     1      -0.924  -1.399   0.000  1.00  0.00     0.001 A 
HETATM    6  C   UNL     1      -2.223  -2.150   0.000  1.00  0.00     0.004 A 
HETATM    7  C   UNL     1      -2.223  -3.650   0.000  1.00  0.00     0.024 A 
ENDBRANCH   1   2
BRANCH   1   8
HETATM    8  C   UNL     1       0.375  -6.649   0.000  1.00  0.00    -0.025 A 
HETATM    9  C   UNL     1       1.674  -5.899   0.000  1.00  0.00     0.024 A 
HETATM   10  C   UNL     1       2.973  -6.649   0.000  1.00  0.00     0.004 A 
HETATM   11  C   UNL     1       2.973  -8.149   0.000  1.00  0.00     0.001 A 
HETATM   12  C   UNL     1       1.674  -8.899   0.000  1.00  0.00     0.004 A 
HETATM   13  C   UNL     1       0.375  -8.149   0.000  1.00  0.00     0.024 A 
ENDBRANCH   1   8
BRANCH   1  14
HETATM   14  N   UNL     1      -2.223  -6.649   0.000  1.00  0.00    -0.148 NA
BRANCH  14  15
HETATM   15  N   UNL     1      -2.223  -8.149   0.000  1.00  0.00    -0.135 NA
BRANCH  15  16
HETATM   16  C   UNL     1      -3.522  -8.899   0.000  1.00  0.00     0.136 A 
HETATM   17  N   UNL     1      -4.821  -8.149   0.000  1.00  0.00    -0.356 N 
HETATM   18  C   UNL     1      -6.120  -8.899   0.000  1.00  0.00     0.145 A 
HETATM   19  H   UNL     1      -4.821  -6.649   0.000  1.00  0.00     0.162 HD
HETATM   20  C   UNL     1      -6.120 -10.399   0.000  1.00  0.00     0.105 A 
HETATM   21  C   UNL     1      -4.821 -11.149   0.000  1.00  0.00     0.056 A 
HETATM   22  C   UNL     1      -3.522 -10.399   0.000  1.00  0.00     0.071 A 
BRANCH  20  23
HETATM   23  N   UNL     1      -7.419 -11.149   0.000  1.00  0.00    -0.120 N 
HETATM   24  O   UNL     1      -8.718 -10.399   0.000  1.00  0.00    -0.532 OA
HETATM   25  O   UNL     1      -7.419 -12.649   0.000  1.00  0.00    -0.532 OA
ENDBRANCH  20  23
ENDBRANCH  15  16
ENDBRANCH  14  15
ENDBRANCH   1  14
TORSDOF 6
