REMARK  1 active torsions:
REMARK  status: ('A' for Active; 'I' for Inactive)
REMARK    1  A    between atoms: C_6  and  C_9 
ROOT
HETATM    1  N   UNL     1      -5.471  -7.024   0.000  1.00  0.00    -0.182 NA
HETATM    2  N   UNL     1      -4.172  -4.774   0.000  1.00  0.00    -0.196 NA
HETATM    3  N   UNL     1      -2.873  -7.024   0.000  1.00  0.00    -0.196 NA
HETATM    4  C   UNL     1      -2.873  -5.524   0.000  1.00  0.00     0.160 A 
HETATM    5  C   UNL     1      -5.471  -5.524   0.000  1.00  0.00     0.241 A 
HETATM    6  C   UNL     1      -4.172  -7.774   0.000  1.00  0.00     0.241 A 
HETATM    7  N   UNL     1      -6.770  -4.774   0.000  1.00  0.00    -0.059 NA
HETATM    8  N   UNL     1      -4.172  -9.274   0.000  1.00  0.00    -0.059 NA
ENDROOT
BRANCH   4   9
HETATM    9  C   UNL     1      -1.574  -4.774   0.000  1.00  0.00    -0.008 A 
HETATM   10  C   UNL     1      -1.574  -3.275   0.000  1.00  0.00     0.025 A 
HETATM   11  C   UNL     1      -0.275  -2.525   0.000  1.00  0.00     0.004 A 
HETATM   12  C   UNL     1       1.024  -3.275   0.000  1.00  0.00     0.001 A 
HETATM   13  C   UNL     1       1.024  -4.774   0.000  1.00  0.00     0.004 A 
HETATM   14  C   UNL     1      -0.275  -5.524   0.000  1.00  0.00     0.025 A 
ENDBRANCH   4   9
TORSDOF 1
