REMARK  0 active torsions:
REMARK  status: ('A' for Active; 'I' for Inactive)
ROOT
HETATM    1  C   UNL     1      -4.500  -4.647   0.000  1.00  0.00     0.179 A 
HETATM    2  N   UNL     1      -5.250  -5.946   0.000  1.00  0.00    -0.039 N 
HETATM    3  C   UNL     1      -4.500  -7.245   0.000  1.00  0.00     0.772 A 
HETATM    4  N   UNL     1      -3.000  -7.245   0.000  1.00  0.00    -0.025 NA
HETATM    5  C   UNL     1      -2.250  -5.946   0.000  1.00  0.00     0.256 A 
HETATM    6  N   UNL     1      -3.000  -4.647   0.000  1.00  0.00    -0.195 NA
HETATM    7  C   UNL     1      -9.750  -5.946   0.000  1.00  0.00     0.256 A 
HETATM    8  N   UNL     1      -9.000  -7.245   0.000  1.00  0.00    -0.025 NA
HETATM    9  C   UNL     1      -7.500  -7.245   0.000  1.00  0.00     0.772 A 
HETATM   10  N   UNL     1      -6.750  -5.946   0.000  1.00  0.00    -0.039 N 
HETATM   11  C   UNL     1      -7.500  -4.647   0.000  1.00  0.00     0.179 A 
HETATM   12  N   UNL     1      -9.000  -4.647   0.000  1.00  0.00    -0.195 NA
HETATM   13  C   UNL     1      -5.250  -3.348   0.000  1.00  0.00     0.013 A 
HETATM   14  C   UNL     1      -6.750  -3.348   0.000  1.00  0.00     0.013 A 
HETATM   15  C   UNL     1      -4.500  -2.049   0.000  1.00  0.00     0.029 A 
HETATM   16  C   UNL     1      -5.250  -0.750   0.000  1.00  0.00     0.005 A 
HETATM   17  C   UNL     1      -6.750  -0.750   0.000  1.00  0.00     0.005 A 
HETATM   18  C   UNL     1      -7.500  -2.049   0.000  1.00  0.00     0.029 A 
HETATM   19  N   UNL     1     -11.250  -5.946   0.000  1.00  0.00    -0.059 NA
HETATM   20  N   UNL     1      -5.250  -8.544   0.000  1.00  0.00     0.062 NA
HETATM   21  N   UNL     1      -6.750  -8.544   0.000  1.00  0.00     0.062 NA
HETATM   22  N   UNL     1      -0.750  -5.946   0.000  1.00  0.00    -0.059 NA
ENDROOT
TORSDOF 0
