REMARK  3 active torsions:
REMARK  status: ('A' for Active; 'I' for Inactive)
REMARK    1  A    between atoms: C_8  and  C_17 
REMARK    2  A    between atoms: C_14  and  S_18 
REMARK    3  A    between atoms: C_17  and  S_18 
ROOT
HETATM    1  C   UNL     1      -8.819  -0.275   0.000  1.00  0.00     0.086 C 
ENDROOT
BRANCH   1   2
HETATM    2  C   UNL     1     -10.118   0.475   0.000  1.00  0.00    -0.026 A 
HETATM    3  C   UNL     1     -10.118   1.976   0.000  1.00  0.00     0.029 A 
HETATM    4  C   UNL     1     -11.417   2.725   0.000  1.00  0.00     0.038 A 
HETATM    5  C   UNL     1     -12.716   1.976   0.000  1.00  0.00     0.019 A 
HETATM    6 CL   UNL     1     -14.015   2.725   0.000  1.00  0.00    -0.091 Cl
HETATM    7  C   UNL     1     -12.716   0.475   0.000  1.00  0.00     0.071 A 
HETATM    8  C   UNL     1     -11.417  -0.275   0.000  1.00  0.00     0.033 A 
HETATM    9 CL   UNL     1     -11.417  -1.774   0.000  1.00  0.00    -0.087 Cl
ENDBRANCH   1   2
BRANCH   1  10
HETATM   10  S   UNL     1      -7.520   0.475   0.000  1.00  0.00    -0.095 SA
BRANCH  10  11
HETATM   11  C   UNL     1      -6.221  -0.275   0.000  1.00  0.00     0.090 A 
HETATM   12  N   UNL     1      -4.922   0.475   0.000  1.00  0.00    -0.203 NA
HETATM   13  C   UNL     1      -3.623  -0.275   0.000  1.00  0.00     0.275 A 
HETATM   14  N   UNL     1      -3.623  -1.774   0.000  1.00  0.00    -0.337 N 
HETATM   15  O   UNL     1      -2.324   0.475   0.000  1.00  0.00    -0.149 OA
HETATM   16  C   UNL     1      -4.922  -2.525   0.000  1.00  0.00     0.108 A 
HETATM   17  H   UNL     1      -2.324  -2.525   0.000  1.00  0.00     0.164 HD
HETATM   18  C   UNL     1      -6.221  -1.774   0.000  1.00  0.00     0.076 A 
ENDBRANCH  10  11
ENDBRANCH   1  10
TORSDOF 3
