REMARK  3 active torsions:
REMARK  status: ('A' for Active; 'I' for Inactive)
REMARK    1  A    between atoms: N_7  and  C_21 
REMARK    2  A    between atoms: C_8  and  N_18 
REMARK    3  A    between atoms: C_21  and  C_22 
ROOT
HETATM    1  N   UNL     1       0.695  -4.321   0.000  1.00  0.00    -0.300 N 
HETATM    2  N   UNL     1       2.049  -6.245   0.000  1.00  0.00    -0.275 N 
HETATM    3  N   UNL     1       0.026  -1.988   0.000  1.00  0.00    -0.222 NA
HETATM    4  N   UNL     1       3.348  -8.495   0.000  1.00  0.00    -0.197 NA
HETATM    5  S   UNL     1       3.348  -3.995   0.000  1.00  0.00    -0.048 SA
HETATM    6  N   UNL     1       6.074  -5.782   0.000  1.00  0.00    -0.241 NA
HETATM    7  N   UNL     1       6.074  -8.209   0.000  1.00  0.00    -0.312 N 
HETATM    8  C   UNL     1       1.525  -2.041   0.000  1.00  0.00     0.227 A 
HETATM    9  C   UNL     1       1.938  -3.482   0.000  1.00  0.00     0.131 A 
HETATM   10  C   UNL     1      -0.487  -3.398   0.000  1.00  0.00     0.235 A 
HETATM   11  C   UNL     1       3.348  -5.495   0.000  1.00  0.00     0.116 A 
HETATM   12  C   UNL     1       4.647  -6.245   0.000  1.00  0.00     0.134 A 
HETATM   13  C   UNL     1       4.647  -7.745   0.000  1.00  0.00     0.164 A 
HETATM   14  C   UNL     1       6.955  -6.995   0.000  1.00  0.00     0.232 A 
HETATM   15  C   UNL     1       2.049  -7.745   0.000  1.00  0.00     0.222 A 
HETATM   16  N   UNL     1       0.750  -8.495   0.000  1.00  0.00    -0.061 NA
HETATM   17  C   UNL     1       0.643  -5.820   0.000  1.00  0.00     0.219 A 
ENDROOT
BRANCH   7  18
HETATM   18  C   UNL     1       6.537  -9.636   0.000  1.00  0.00     0.105 C 
BRANCH  18  19
HETATM   19  C   UNL     1       8.004  -9.947   0.000  1.00  0.00     0.024 C 
HETATM   20  C   UNL     1       8.468 -11.374   0.000  1.00  0.00     0.002 C 
ENDBRANCH  18  19
ENDBRANCH   7  18
BRANCH   8  21
HETATM   21  N   UNL     1       2.449  -0.859   0.000  1.00  0.00    -0.093 N 
HETATM   22  O   UNL     1       3.934  -1.067   0.000  1.00  0.00    -0.530 OA
HETATM   23  O   UNL     1       1.887   0.532   0.000  1.00  0.00    -0.530 OA
ENDBRANCH   8  21
TORSDOF 3
