REMARK  4 active torsions:
REMARK  status: ('A' for Active; 'I' for Inactive)
REMARK    1  A    between atoms: N_2  and  C_8 
REMARK    2  A    between atoms: C_5  and  C_16 
REMARK    3  A    between atoms: C_13  and  O_15 
REMARK    4  A    between atoms: O_15  and  C_16 
ROOT
HETATM    1  N   UNL     1      -7.108  -0.048   0.000  1.00  0.00    -0.164 NA
HETATM    2  N   UNL     1      -5.737   0.562   0.000  1.00  0.00    -0.252 N 
HETATM    3  C   UNL     1      -5.894   2.054   0.000  1.00  0.00     0.182 A 
HETATM    4  C   UNL     1      -7.362   2.366   0.000  1.00  0.00     0.156 A 
HETATM    5  C   UNL     1      -8.111   1.067   0.000  1.00  0.00     0.173 A 
HETATM    6  O   UNL     1      -7.972   3.736   0.000  1.00  0.00    -0.191 OA
ENDROOT
BRANCH   2   7
HETATM    7  C   UNL     1      -4.438  -0.188   0.000  1.00  0.00     0.034 A 
HETATM    8  C   UNL     1      -3.139   0.562   0.000  1.00  0.00     0.041 A 
HETATM    9  C   UNL     1      -1.840  -0.188   0.000  1.00  0.00     0.006 A 
HETATM   10  C   UNL     1      -1.840  -1.688   0.000  1.00  0.00     0.001 A 
HETATM   11  C   UNL     1      -3.139  -2.438   0.000  1.00  0.00     0.006 A 
HETATM   12  C   UNL     1      -4.438  -1.688   0.000  1.00  0.00     0.041 A 
ENDBRANCH   2   7
BRANCH   5  13
HETATM   13  C   UNL     1      -9.603   0.910   0.000  1.00  0.00     0.250 C 
HETATM   14  O   UNL     1     -10.213  -0.460   0.000  1.00  0.00    -0.162 OA
BRANCH  13  15
HETATM   15  O   UNL     1     -10.485   2.124   0.000  1.00  0.00    -0.308 OA
BRANCH  15  16
HETATM   16  C   UNL     1     -11.977   1.967   0.000  1.00  0.00     0.151 C 
HETATM   17  C   UNL     1     -12.858   3.180   0.000  1.00  0.00     0.035 C 
ENDBRANCH  15  16
ENDBRANCH  13  15
ENDBRANCH   5  13
TORSDOF 4
