REMARK  2 active torsions:
REMARK  status: ('A' for Active; 'I' for Inactive)
REMARK    1  A    between atoms: N_1  and  C_6 
REMARK    2  A    between atoms: C_3  and  C_11 
ROOT
HETATM    1  C   UNL     1      -2.973   0.851   0.000  1.00  0.00     0.039 A 
HETATM    2  C   UNL     1      -1.674   0.101   0.000  1.00  0.00     0.006 A 
HETATM    3  C   UNL     1      -4.272   0.101   0.000  1.00  0.00     0.015 A 
HETATM    4  C   UNL     1      -1.674  -1.399   0.000  1.00  0.00     0.001 A 
HETATM    5  C   UNL     1      -4.272  -1.399   0.000  1.00  0.00     0.039 A 
HETATM    6  C   UNL     1      -2.973  -2.150   0.000  1.00  0.00     0.006 A 
ENDROOT
BRANCH   3   7
HETATM    7  N   UNL     1      -5.571   0.851   0.000  1.00  0.00    -0.332 N 
HETATM    8  C   UNL     1      -6.321   2.150   0.000  1.00  0.00     0.147 A 
HETATM    9  C   UNL     1      -7.071   0.851   0.000  1.00  0.00     0.070 A 
BRANCH   9  10
HETATM   10  C   UNL     1      -8.370   0.101   0.000  1.00  0.00     0.223 C 
HETATM   11  O   UNL     1      -9.669   0.851   0.000  1.00  0.00    -0.214 OA
ENDBRANCH   9  10
ENDBRANCH   3   7
TORSDOF 2
