REMARK  3 active torsions:
REMARK  status: ('A' for Active; 'I' for Inactive)
REMARK    1  A    between atoms: C_1  and  C_21 
REMARK    2  A    between atoms: C_5  and  N_19 
REMARK    3  A    between atoms: C_6  and  N_16 
ROOT
HETATM    1  C   UNL     1      -5.722  -3.000   0.000  1.00  0.00     0.099 A 
HETATM    2  C   UNL     1      -4.423  -3.750   0.000  1.00  0.00     0.051 A 
HETATM    3  C   UNL     1      -7.021  -3.750   0.000  1.00  0.00     0.051 A 
HETATM    4  C   UNL     1      -4.423  -5.250   0.000  1.00  0.00     0.028 A 
HETATM    5  C   UNL     1      -7.021  -5.250   0.000  1.00  0.00     0.028 A 
HETATM    6  C   UNL     1      -5.722  -6.000   0.000  1.00  0.00     0.079 A 
ENDROOT
BRANCH   4   7
HETATM    7  N   UNL     1      -3.124  -6.000   0.000  1.00  0.00    -0.279 N 
HETATM    8  C   UNL     1      -1.754  -5.390   0.000  1.00  0.00     0.176 A 
HETATM    9  O   UNL     1      -1.442  -3.923   0.000  1.00  0.00    -0.175 OA
HETATM   10  C   UNL     1      -0.750  -6.505   0.000  1.00  0.00     0.082 A 
HETATM   11  C   UNL     1      -1.500  -7.804   0.000  1.00  0.00     0.082 A 
HETATM   12  C   UNL     1      -2.967  -7.492   0.000  1.00  0.00     0.176 A 
HETATM   13  O   UNL     1      -4.082  -8.495   0.000  1.00  0.00    -0.175 OA
ENDBRANCH   4   7
BRANCH   1  14
HETATM   14  C   UNL     1      -5.722  -1.500   0.000  1.00  0.00     0.185 C 
HETATM   15  O   UNL     1      -7.021  -0.750   0.000  1.00  0.00    -0.647 OA
HETATM   16  O   UNL     1      -4.423  -0.750   0.000  1.00  0.00    -0.647 OA
ENDBRANCH   1  14
BRANCH   5  17
HETATM   17  N   UNL     1      -8.320  -6.000   0.000  1.00  0.00    -0.279 N 
HETATM   18  C   UNL     1      -9.691  -5.390   0.000  1.00  0.00     0.176 A 
HETATM   19  C   UNL     1     -10.694  -6.505   0.000  1.00  0.00     0.082 A 
HETATM   20  O   UNL     1     -10.002  -3.923   0.000  1.00  0.00    -0.175 OA
HETATM   21  C   UNL     1      -9.944  -7.804   0.000  1.00  0.00     0.082 A 
HETATM   22  C   UNL     1      -8.477  -7.492   0.000  1.00  0.00     0.176 A 
HETATM   23  O   UNL     1      -7.362  -8.495   0.000  1.00  0.00    -0.175 OA
ENDBRANCH   5  17
TORSDOF 3
