REMARK  1 active torsions:
REMARK  status: ('A' for Active; 'I' for Inactive)
REMARK    1  A    between atoms: C_7  and  C_10 
ROOT
HETATM    1  S   UNL     1       0.750   0.750   0.000  1.00  0.00    -0.038 SA
HETATM    2  H   UNL     1       0.750   3.750   0.000  1.00  0.00     0.170 HD
HETATM    3  N   UNL     1       2.049   3.000   0.000  1.00  0.00    -0.312 N 
HETATM    4  N   UNL     1       3.348   0.750   0.000  1.00  0.00    -0.204 NA
HETATM    5  O   UNL     1       3.348   5.250   0.000  1.00  0.00    -0.176 OA
HETATM    6  C   UNL     1       3.348   3.750   0.000  1.00  0.00     0.176 A 
HETATM    7  C   UNL     1       4.647   3.000   0.000  1.00  0.00     0.116 A 
HETATM    8  C   UNL     1       4.647   1.500   0.000  1.00  0.00     0.148 A 
HETATM    9  C   UNL     1       2.049   1.500   0.000  1.00  0.00     0.201 A 
HETATM   10  N   UNL     1       5.946   0.750   0.000  1.00  0.00    -0.234 NA
HETATM   11  C   UNL     1       6.124   2.740   0.000  1.00  0.00     0.062 A 
HETATM   12  C   UNL     1       6.637   1.330   0.000  1.00  0.00     0.075 A 
ENDROOT
BRANCH   7  13
HETATM   13  C   UNL     1       5.160   4.410   0.000  1.00  0.00     0.015 C 
HETATM   14  C   UNL     1       6.637   4.670   0.000  1.00  0.00     0.001 C 
ENDBRANCH   7  13
TORSDOF 1
