REMARK  4 active torsions:
REMARK  status: ('A' for Active; 'I' for Inactive)
REMARK    1  A    between atoms: C_3  and  N_15 
REMARK    2  A    between atoms: C_6  and  N_12 
REMARK    3  A    between atoms: C_11  and  C_19 
REMARK       I    between atoms: N_15  and  C_16 
REMARK       I    between atoms: C_16  and  N_18 
REMARK    4  A    between atoms: N_18  and  C_19 
ROOT
HETATM    1  N   UNL     1       5.471   5.524   0.000  1.00  0.00    -0.232 NA
HETATM    2  C   UNL     1       5.210   7.002   0.000  1.00  0.00     0.292 C 
HETATM    3  O   UNL     1       3.801   7.515   0.000  1.00  0.00    -0.148 OA
HETATM    4  N   UNL     1       6.359   7.966   0.000  1.00  0.00    -0.227 NA
ENDROOT
BRANCH   1   5
HETATM    5  C   UNL     1       4.172   4.774   0.000  1.00  0.00     0.108 A 
HETATM    6  C   UNL     1       2.873   5.524   0.000  1.00  0.00     0.031 A 
HETATM    7  C   UNL     1       1.574   4.774   0.000  1.00  0.00     0.048 A 
HETATM    8  C   UNL     1       1.573   3.275   0.000  1.00  0.00     0.082 A 
HETATM    9  C   UNL     1       2.873   2.525   0.000  1.00  0.00     0.048 A 
HETATM   10  C   UNL     1       4.172   3.275   0.000  1.00  0.00     0.031 A 
BRANCH   8  11
HETATM   11  N   UNL     1       0.275   2.525   0.000  1.00  0.00    -0.122 N 
HETATM   12  O   UNL     1      -1.024   3.275   0.000  1.00  0.00    -0.532 OA
HETATM   13  O   UNL     1       0.275   1.024   0.000  1.00  0.00    -0.532 OA
ENDBRANCH   8  11
ENDBRANCH   1   5
BRANCH   4  14
HETATM   14  C   UNL     1       7.769   7.453   0.000  1.00  0.00     0.159 C 
BRANCH  14  15
HETATM   15  C   UNL     1       8.029   5.976   0.000  1.00  0.00     0.140 A 
HETATM   16  O   UNL     1       6.987   4.897   0.000  1.00  0.00    -0.355 OA
HETATM   17  C   UNL     1       7.691   3.572   0.000  1.00  0.00     0.142 A 
HETATM   18  C   UNL     1       9.169   3.833   0.000  1.00  0.00     0.035 A 
HETATM   19  C   UNL     1       9.377   5.318   0.000  1.00  0.00     0.034 A 
ENDBRANCH  14  15
ENDBRANCH   4  14
TORSDOF 4
