REMARK  1 active torsions:
REMARK  status: ('A' for Active; 'I' for Inactive)
REMARK    1  A    between atoms: N_2  and  C_12 
ROOT
HETATM    1  O   UNL     1      -6.502  -2.201   0.000  1.00  0.00     0.000 OA
HETATM    2  N   UNL     1      -3.761  -2.201   0.000  1.00  0.00    -0.368 N 
HETATM    3  C   UNL     1      -7.368  -0.701   0.000  1.00  0.00     0.002 A 
HETATM    4  C   UNL     1      -6.069  -1.451   0.000  1.00  0.00     0.024 A 
HETATM    5  C   UNL     1      -4.642  -0.987   0.000  1.00  0.00     0.097 A 
HETATM    6  C   UNL     1      -8.667  -1.451   0.000  1.00  0.00     0.000 A 
HETATM    7  C   UNL     1      -6.069  -2.951   0.000  1.00  0.00     0.024 A 
HETATM    8  C   UNL     1      -8.667  -2.951   0.000  1.00  0.00     0.000 A 
HETATM    9  C   UNL     1      -7.368  -3.701   0.000  1.00  0.00     0.002 A 
HETATM   10  C   UNL     1      -4.642  -3.414   0.000  1.00  0.00     0.097 A 
HETATM   11  C   UNL     1      -7.368   0.799   0.000  1.00  0.00     0.000 C 
ENDROOT
BRANCH   2  12
HETATM   12  C   UNL     1      -2.261  -2.201   0.000  1.00  0.00     0.097 C 
HETATM   13  C   UNL     1      -1.511  -3.500   0.000  1.00  0.00     0.026 C 
ENDBRANCH   2  12
TORSDOF 1
