REMARK  3 active torsions:
REMARK  status: ('A' for Active; 'I' for Inactive)
REMARK    1  A    between atoms: C_3  and  N_15 
REMARK    2  A    between atoms: C_8  and  C_13 
REMARK    3  A    between atoms: C_13  and  N_15 
ROOT
HETATM    1  C   UNL     1       2.873   5.524   0.000  1.00  0.00     0.148 C 
HETATM    2  S   UNL     1       2.873   7.024   0.000  1.00  0.00    -0.056 SA
ENDROOT
BRANCH   1   3
HETATM    3  C   UNL     1       1.574   4.774   0.000  1.00  0.00     0.082 A 
HETATM    4  N   UNL     1       0.275   5.524   0.000  1.00  0.00    -0.273 NA
HETATM    5  C   UNL     1      -1.024   4.774   0.000  1.00  0.00     0.125 A 
HETATM    6  C   UNL     1      -1.024   3.275   0.000  1.00  0.00     0.027 A 
HETATM    7  C   UNL     1       0.275   2.525   0.000  1.00  0.00     0.008 A 
HETATM    8  C   UNL     1       1.574   3.275   0.000  1.00  0.00     0.048 A 
ENDBRANCH   1   3
BRANCH   1   9
HETATM    9  N   UNL     1       4.172   4.774   0.000  1.00  0.00    -0.242 NA
BRANCH   9  10
HETATM   10  C   UNL     1       5.471   5.524   0.000  1.00  0.00     0.038 A 
HETATM   11  C   UNL     1       5.471   7.024   0.000  1.00  0.00     0.041 A 
HETATM   12  C   UNL     1       6.770   7.774   0.000  1.00  0.00     0.006 A 
HETATM   13  C   UNL     1       8.069   7.024   0.000  1.00  0.00     0.001 A 
HETATM   14  C   UNL     1       8.069   5.524   0.000  1.00  0.00     0.006 A 
HETATM   15  C   UNL     1       6.770   4.774   0.000  1.00  0.00     0.041 A 
ENDBRANCH   9  10
ENDBRANCH   1   9
TORSDOF 3
