REMARK  6 active torsions:
REMARK  status: ('A' for Active; 'I' for Inactive)
REMARK    1  A    between atoms: C_8  and  O_37 
REMARK    2  A    between atoms: C_15  and  C_16 
REMARK    3  A    between atoms: C_22  and  O_25 
REMARK    4  A    between atoms: C_23  and  C_31 
REMARK    5  A    between atoms: C_24  and  O_27 
REMARK    6  A    between atoms: C_31  and  O_33 
ROOT
HETATM    1  N   UNL     1       4.821   6.649   0.000  1.00  0.00    -0.239 NA
HETATM    2  C   UNL     1       3.522   8.899   0.000  1.00  0.00     0.088 A 
HETATM    3  C   UNL     1       2.223   8.149   0.000  1.00  0.00     0.013 A 
HETATM    4  C   UNL     1       4.821   8.149   0.000  1.00  0.00     0.108 A 
HETATM    5  C   UNL     1       2.223   6.649   0.000  1.00  0.00     0.030 A 
HETATM    6  C   UNL     1       0.924   8.899   0.000  1.00  0.00     0.003 A 
HETATM    7  C   UNL     1       0.924  10.399   0.000  1.00  0.00     0.035 A 
HETATM    8  C   UNL     1      -0.375  11.149   0.000  1.00  0.00     0.058 A 
HETATM    9  C   UNL     1      -0.375   8.149   0.000  1.00  0.00     0.114 A 
HETATM   10  C   UNL     1      -1.674  10.399   0.000  1.00  0.00     0.096 A 
HETATM   11  C   UNL     1       3.522   5.899   0.000  1.00  0.00     0.129 A 
HETATM   12  C   UNL     1      -1.674   8.899   0.000  1.00  0.00     0.134 A 
HETATM   13  O   UNL     1      -0.375   6.649   0.000  1.00  0.00    -0.324 OA
HETATM   14  C   UNL     1       0.924   5.899   0.000  1.00  0.00     0.177 A 
HETATM   15  N   UNL     1       3.522  10.399   0.000  1.00  0.00    -0.099 NA
ENDROOT
BRANCH   4  16
HETATM   16  C   UNL     1       6.120   8.899   0.000  1.00  0.00     0.078 A 
HETATM   17  N   UNL     1       6.120  10.399   0.000  1.00  0.00    -0.246 NA
HETATM   18  C   UNL     1       7.419  11.149   0.000  1.00  0.00     0.105 A 
HETATM   19  C   UNL     1       7.419  12.649   0.000  1.00  0.00     0.163 A 
HETATM   20  C   UNL     1       8.718  10.399   0.000  1.00  0.00     0.025 A 
HETATM   21  O   UNL     1       6.120  13.399   0.000  1.00  0.00    -0.187 OA
HETATM   22  C   UNL     1       8.718  13.399   0.000  1.00  0.00     0.121 A 
HETATM   23  C   UNL     1      10.017  12.649   0.000  1.00  0.00     0.134 A 
HETATM   24  N   UNL     1       8.718  14.899   0.000  1.00  0.00    -0.096 NA
HETATM   25  C   UNL     1      10.017  11.149   0.000  1.00  0.00     0.152 A 
HETATM   26  O   UNL     1      11.316  10.399   0.000  1.00  0.00    -0.188 OA
HETATM   27  C   UNL     1       8.718   8.899   0.000  1.00  0.00     0.036 A 
HETATM   28  C   UNL     1       7.419   8.149   0.000  1.00  0.00     0.052 A 
BRANCH  23  29
HETATM   29  O   UNL     1      11.316  13.399   0.000  1.00  0.00    -0.325 OA
HETATM   30  C   UNL     1      11.316  14.899   0.000  1.00  0.00     0.181 C 
ENDBRANCH  23  29
ENDBRANCH   4  16
BRANCH  11  31
HETATM   31  C   UNL     1       3.522   4.399   0.000  1.00  0.00     0.246 C 
HETATM   32  O   UNL     1       2.223   3.650   0.000  1.00  0.00    -0.162 OA
BRANCH  31  33
HETATM   33  O   UNL     1       4.821   3.650   0.000  1.00  0.00    -0.305 OA
HETATM   34  C   UNL     1       6.120   4.399   0.000  1.00  0.00     0.184 C 
ENDBRANCH  31  33
ENDBRANCH  11  31
BRANCH  12  35
HETATM   35  O   UNL     1      -2.973   8.149   0.000  1.00  0.00    -0.325 OA
HETATM   36  C   UNL     1      -4.272   8.899   0.000  1.00  0.00     0.182 C 
ENDBRANCH  12  35
BRANCH  10  37
HETATM   37  O   UNL     1      -2.973  11.149   0.000  1.00  0.00    -0.330 OA
HETATM   38  C   UNL     1      -2.973  12.649   0.000  1.00  0.00     0.181 C 
ENDBRANCH  10  37
TORSDOF 6
