REMARK  1 active torsions:
REMARK  status: ('A' for Active; 'I' for Inactive)
REMARK    1  A    between atoms: N_2  and  C_5 
ROOT
HETATM    1  N   UNL     1       2.049  -5.049   0.000  1.00  0.00    -0.148 NA
HETATM    2  N   UNL     1       2.049  -6.549   0.000  1.00  0.00    -0.125 N 
HETATM    3  C   UNL     1       0.750  -2.799   0.000  1.00  0.00     0.048 A 
HETATM    4  C   UNL     1       0.750  -4.299   0.000  1.00  0.00     0.088 A 
HETATM    5  C   UNL     1      -0.549  -2.049   0.000  1.00  0.00     0.007 A 
HETATM    6  C   UNL     1      -0.549  -5.049   0.000  1.00  0.00     0.087 A 
HETATM    7  C   UNL     1      -1.848  -2.799   0.000  1.00  0.00     0.005 A 
HETATM    8  C   UNL     1      -1.848  -4.299   0.000  1.00  0.00     0.040 A 
HETATM    9  C   UNL     1      -3.147  -2.049   0.000  1.00  0.00     0.000 C 
HETATM   10  S   UNL     1      -0.549  -6.549   0.000  1.00  0.00     0.239 S 
HETATM   11  O   UNL     1      -2.049  -6.549   0.000  1.00  0.00    -0.211 OA
HETATM   12  O   UNL     1       0.951  -6.549   0.000  1.00  0.00    -0.136 OA
HETATM   13  N   UNL     1      -0.549  -8.049   0.000  1.00  0.00    -0.055 N 
ENDROOT
BRANCH   2  14
HETATM   14  C   UNL     1       3.348  -7.299   0.000  1.00  0.00     0.079 A 
HETATM   15  C   UNL     1       4.647  -6.549   0.000  1.00  0.00     0.050 A 
HETATM   16  C   UNL     1       5.946  -7.299   0.000  1.00  0.00     0.046 A 
HETATM   17  C   UNL     1       5.946  -8.799   0.000  1.00  0.00     0.306 A 
HETATM   18  C   UNL     1       4.647  -9.549   0.000  1.00  0.00     0.062 A 
HETATM   19  N   UNL     1       7.245  -9.549   0.000  1.00  0.00     0.616 N 
HETATM   20  C   UNL     1       3.348  -8.799   0.000  1.00  0.00    -0.026 A 
HETATM   21  C   UNL     1       2.049  -9.549   0.000  1.00  0.00     0.028 C 
ENDBRANCH   2  14
TORSDOF 1
