REMARK  3 active torsions:
REMARK  status: ('A' for Active; 'I' for Inactive)
REMARK    1  A    between atoms: N_2  and  N_3 
REMARK    2  A    between atoms: N_2  and  C_9 
REMARK    3  A    between atoms: N_3  and  C_10 
ROOT
HETATM    1  C   UNL     1       6.221  -1.226   0.000  1.00  0.00     0.119 A 
HETATM    2  C   UNL     1       6.221   0.275   0.000  1.00  0.00     0.128 A 
HETATM    3  C   UNL     1       7.520  -1.976   0.000  1.00  0.00    -0.009 A 
HETATM    4  C   UNL     1       7.520  -3.475   0.000  1.00  0.00     0.027 A 
HETATM    5  C   UNL     1       8.819  -4.226   0.000  1.00  0.00     0.005 A 
HETATM    6  C   UNL     1       7.520   1.024   0.000  1.00  0.00     0.060 A 
HETATM    7  C   UNL     1       8.819  -1.226   0.000  1.00  0.00    -0.046 A 
HETATM    8  C   UNL     1      10.118  -3.475   0.000  1.00  0.00     0.005 A 
HETATM    9  C   UNL     1       8.819   0.275   0.000  1.00  0.00     0.029 A 
HETATM   10  C   UNL     1      10.118  -1.976   0.000  1.00  0.00     0.022 A 
HETATM   11  O   UNL     1       4.922   1.024   0.000  1.00  0.00    -0.193 OA
ENDROOT
BRANCH   1  12
HETATM   12  N   UNL     1       4.922  -1.976   0.000  1.00  0.00    -0.147 NA
BRANCH  12  13
HETATM   13  N   UNL     1       3.623  -1.226   0.000  1.00  0.00    -0.157 NA
BRANCH  13  14
HETATM   14  C   UNL     1       1.479  -2.463   0.000  1.00  0.00     0.059 A 
HETATM   15  C   UNL     1       0.180  -1.713   0.000  1.00  0.00     0.050 A 
HETATM   16  C   UNL     1      -1.119  -2.463   0.000  1.00  0.00     0.058 A 
HETATM   17  C   UNL     1      -1.119  -3.963   0.000  1.00  0.00     0.096 A 
HETATM   18  F   UNL     1      -2.418  -4.713   0.000  1.00  0.00    -0.213 F 
HETATM   19  C   UNL     1       0.180  -4.713   0.000  1.00  0.00     0.058 A 
HETATM   20  C   UNL     1       1.479  -3.963   0.000  1.00  0.00     0.050 A 
ENDBRANCH  13  14
ENDBRANCH  12  13
ENDBRANCH   1  12
TORSDOF 3
