REMARK  4 active torsions:
REMARK  status: ('A' for Active; 'I' for Inactive)
REMARK    1  A    between atoms: N_4  and  C_13 
REMARK    2  A    between atoms: N_4  and  N_5 
REMARK    3  A    between atoms: N_5  and  C_16 
REMARK    4  A    between atoms: C_18  and  C_22 
ROOT
HETATM    1  H   UNL     1       3.067  -2.313   0.000  1.00  0.00     0.168 HD
HETATM    2  N   UNL     1       4.367  -1.563   0.000  1.00  0.00    -0.335 N 
HETATM    3  O   UNL     1       3.067   0.687   0.000  1.00  0.00    -0.169 OA
HETATM    4  C   UNL     1       5.665  -3.813   0.000  1.00  0.00     0.043 A 
HETATM    5  C   UNL     1       5.665  -2.313   0.000  1.00  0.00     0.033 A 
HETATM    6  C   UNL     1       6.965  -4.563   0.000  1.00  0.00     0.007 A 
HETATM    7  C   UNL     1       6.965  -1.563   0.000  1.00  0.00     0.016 A 
HETATM    8  C   UNL     1       8.264  -3.813   0.000  1.00  0.00     0.005 A 
HETATM    9  C   UNL     1       6.965  -0.063   0.000  1.00  0.00     0.151 A 
HETATM   10  C   UNL     1       4.367  -0.063   0.000  1.00  0.00     0.212 A 
HETATM   11  C   UNL     1       5.665   0.687   0.000  1.00  0.00     0.170 A 
HETATM   12  C   UNL     1       8.264  -2.313   0.000  1.00  0.00     0.030 A 
HETATM   13  O   UNL     1       8.264   0.687   0.000  1.00  0.00    -0.189 OA
ENDROOT
BRANCH  11  14
HETATM   14  N   UNL     1       5.665   3.162   0.000  1.00  0.00    -0.143 NA
BRANCH  14  15
HETATM   15  N   UNL     1       6.965   3.912   0.000  1.00  0.00    -0.157 NA
BRANCH  15  16
HETATM   16  C   UNL     1       6.965   5.412   0.000  1.00  0.00     0.059 A 
HETATM   17  C   UNL     1       5.665   6.162   0.000  1.00  0.00     0.048 A 
HETATM   18  C   UNL     1       5.665   7.662   0.000  1.00  0.00     0.031 A 
HETATM   19  C   UNL     1       6.965   8.412   0.000  1.00  0.00    -0.005 A 
HETATM   20  C   UNL     1       8.264   7.662   0.000  1.00  0.00     0.031 A 
HETATM   21  C   UNL     1       8.264   6.162   0.000  1.00  0.00     0.048 A 
BRANCH  19  22
HETATM   22  C   UNL     1       6.965   9.912   0.000  1.00  0.00     0.192 C 
HETATM   23  O   UNL     1       5.665  10.662   0.000  1.00  0.00    -0.175 OA
HETATM   24  N   UNL     1       8.264  10.662   0.000  1.00  0.00    -0.071 NA
ENDBRANCH  19  22
ENDBRANCH  15  16
ENDBRANCH  14  15
ENDBRANCH  11  14
TORSDOF 4
