REMARK  5 active torsions:
REMARK  status: ('A' for Active; 'I' for Inactive)
REMARK    1  A    between atoms: N_4  and  C_13 
REMARK    2  A    between atoms: N_4  and  N_5 
REMARK    3  A    between atoms: N_5  and  C_17 
REMARK    4  A    between atoms: C_19  and  S_25 
REMARK    5  A    between atoms: N_22  and  S_25 
ROOT
HETATM    1  N   UNL     1      -1.083  -1.399   0.000  1.00  0.00    -0.143 NA
ENDROOT
BRANCH   1   2
HETATM    2  C   UNL     1      -2.078  -2.522   0.000  1.00  0.00     0.170 A 
HETATM    3  C   UNL     1      -1.603  -3.945   0.000  1.00  0.00     0.151 A 
HETATM    4  C   UNL     1      -2.598  -5.068   0.000  1.00  0.00     0.016 A 
HETATM    5  O   UNL     1      -0.133  -4.245   0.000  1.00  0.00    -0.189 OA
HETATM    6  C   UNL     1      -4.067  -4.768   0.000  1.00  0.00     0.033 A 
HETATM    7  C   UNL     1      -2.123  -6.491   0.000  1.00  0.00     0.030 A 
HETATM    8  N   UNL     1      -4.542  -3.345   0.000  1.00  0.00    -0.335 N 
HETATM    9  C   UNL     1      -5.062  -5.891   0.000  1.00  0.00     0.043 A 
HETATM   10  H   UNL     1      -6.012  -3.045   0.000  1.00  0.00     0.168 HD
HETATM   11  C   UNL     1      -3.548  -2.222   0.000  1.00  0.00     0.212 A 
HETATM   12  O   UNL     1      -4.023  -0.799   0.000  1.00  0.00    -0.169 OA
HETATM   13  C   UNL     1      -4.587  -7.313   0.000  1.00  0.00     0.007 A 
HETATM   14  C   UNL     1      -3.117  -7.613   0.000  1.00  0.00     0.005 A 
ENDBRANCH   1   2
BRANCH   1  15
HETATM   15  N   UNL     1       0.386  -1.700   0.000  1.00  0.00    -0.152 NA
BRANCH  15  16
HETATM   16  C   UNL     1       1.561  -0.766   0.000  1.00  0.00     0.089 A 
HETATM   17  C   UNL     1       1.340   0.717   0.000  1.00  0.00     0.048 A 
HETATM   18  C   UNL     1       2.515   1.650   0.000  1.00  0.00     0.007 A 
HETATM   19  C   UNL     1       3.910   1.099   0.000  1.00  0.00     0.005 A 
HETATM   20  C   UNL     1       4.131  -0.384   0.000  1.00  0.00     0.041 A 
HETATM   21  C   UNL     1       5.084   2.033   0.000  1.00  0.00     0.000 C 
HETATM   22  C   UNL     1       2.956  -1.317   0.000  1.00  0.00     0.096 A 
BRANCH  22  23
HETATM   23  S   UNL     1       3.177  -2.801   0.000  1.00  0.00     0.262 S 
HETATM   24  O   UNL     1       1.693  -3.022   0.000  1.00  0.00    -0.201 OA
HETATM   25  O   UNL     1       4.660  -2.580   0.000  1.00  0.00    -0.201 OA
BRANCH  23  26
HETATM   26  N   UNL     1       3.398  -4.285   0.000  1.00  0.00    -0.271 N 
HETATM   27  C   UNL     1       2.223  -5.218   0.000  1.00  0.00     0.138 C 
HETATM   28  C   UNL     1       4.793  -4.835   0.000  1.00  0.00     0.138 C 
ENDBRANCH  23  26
ENDBRANCH  22  23
ENDBRANCH  15  16
ENDBRANCH   1  15
TORSDOF 5
