REMARK  3 active torsions:
REMARK  status: ('A' for Active; 'I' for Inactive)
REMARK    1  A    between atoms: C_7  and  N_16 
REMARK    2  A    between atoms: C_12  and  N_15 
REMARK    3  A    between atoms: N_15  and  N_16 
ROOT
HETATM    1  N   UNL     1      -7.158   1.234   0.000  1.00  0.00    -0.225 NA
HETATM    2  N   UNL     1      -5.859  -1.016   0.000  1.00  0.00    -0.338 N 
HETATM    3  H   UNL     1      -5.859  -2.517   0.000  1.00  0.00     0.164 HD
HETATM    4  N   UNL     1      -3.133   1.697   0.000  1.00  0.00    -0.348 N 
HETATM    5  H   UNL     1      -2.670   3.124   0.000  1.00  0.00     0.162 HD
HETATM    6  N   UNL     1      -3.133  -0.730   0.000  1.00  0.00    -0.229 NA
HETATM    7  C   UNL     1      -5.859   1.984   0.000  1.00  0.00     0.200 A 
HETATM    8  C   UNL     1      -4.560   1.234   0.000  1.00  0.00     0.126 A 
HETATM    9  C   UNL     1      -4.560  -0.267   0.000  1.00  0.00     0.154 A 
HETATM   10  C   UNL     1      -2.251   0.483   0.000  1.00  0.00     0.229 A 
HETATM   11  C   UNL     1      -7.158  -0.267   0.000  1.00  0.00     0.230 A 
ENDROOT
BRANCH   7  12
HETATM   12  N   UNL     1      -5.859   3.483   0.000  1.00  0.00    -0.128 NA
BRANCH  12  13
HETATM   13  N   UNL     1      -7.158   4.234   0.000  1.00  0.00    -0.155 NA
BRANCH  13  14
HETATM   14  C   UNL     1      -7.158   5.734   0.000  1.00  0.00     0.059 C 
HETATM   15  C   UNL     1      -5.859   6.484   0.000  1.00  0.00     0.049 C 
HETATM   16  C   UNL     1      -8.457   6.484   0.000  1.00  0.00     0.049 C 
ENDBRANCH  13  14
ENDBRANCH  12  13
ENDBRANCH   7  12
TORSDOF 3
