REMARK  1 active torsions:
REMARK  status: ('A' for Active; 'I' for Inactive)
REMARK    1  A    between atoms: C_9  and  S_10 
ROOT
HETATM    1 CL   UNL     1      -8.319  -2.250   0.000  1.00  0.00    -0.068 Cl
HETATM    2  H   UNL     1      -5.721  -0.750   0.000  1.00  0.00     0.168 HD
HETATM    3  N   UNL     1      -5.721  -2.250   0.000  1.00  0.00    -0.328 N 
HETATM    4  O   UNL     1      -5.721  -6.750   0.000  1.00  0.00    -0.174 OA
HETATM    5  N   UNL     1      -4.422  -4.500   0.000  1.00  0.00    -0.200 NA
HETATM    6  C   UNL     1      -7.021  -3.000   0.000  1.00  0.00     0.102 A 
HETATM    7  C   UNL     1      -7.021  -4.500   0.000  1.00  0.00     0.130 A 
HETATM    8  C   UNL     1      -5.721  -5.250   0.000  1.00  0.00     0.198 A 
HETATM    9  C   UNL     1      -4.422  -3.000   0.000  1.00  0.00     0.170 A 
ENDROOT
BRANCH   9  10
HETATM   10  S   UNL     1      -3.123  -2.250   0.000  1.00  0.00    -0.076 SA
HETATM   11  C   UNL     1      -1.824  -3.000   0.000  1.00  0.00     0.077 C 
ENDBRANCH   9  10
TORSDOF 1
