REMARK  4 active torsions:
REMARK  status: ('A' for Active; 'I' for Inactive)
REMARK    1  A    between atoms: C_3  and  N_15 
REMARK    2  A    between atoms: C_7  and  N_12 
REMARK    3  A    between atoms: C_11  and  C_19 
REMARK       I    between atoms: N_15  and  C_16 
REMARK       I    between atoms: C_16  and  N_18 
REMARK    4  A    between atoms: N_18  and  C_19 
ROOT
HETATM    1  N   UNL     1       1.674   7.399   0.000  1.00  0.00    -0.232 NA
HETATM    2  C   UNL     1       1.414   8.877   0.000  1.00  0.00     0.292 C 
HETATM    3  O   UNL     1       0.004   9.390   0.000  1.00  0.00    -0.148 OA
HETATM    4  N   UNL     1       2.563   9.841   0.000  1.00  0.00    -0.227 NA
ENDROOT
BRANCH   1   5
HETATM    5  C   UNL     1       0.375   6.649   0.000  1.00  0.00     0.113 A 
HETATM    6  C   UNL     1      -0.924   7.399   0.000  1.00  0.00     0.025 A 
HETATM    7  C   UNL     1      -2.223   6.649   0.000  1.00  0.00     0.008 A 
HETATM    8  C   UNL     1      -2.223   5.149   0.000  1.00  0.00     0.046 A 
HETATM    9  C   UNL     1      -0.924   4.399   0.000  1.00  0.00     0.084 A 
HETATM   10  C   UNL     1       0.375   5.149   0.000  1.00  0.00     0.070 A 
BRANCH   9  11
HETATM   11  N   UNL     1      -0.924   2.900   0.000  1.00  0.00    -0.122 N 
HETATM   12  O   UNL     1      -2.223   2.150   0.000  1.00  0.00    -0.532 OA
HETATM   13  O   UNL     1       0.375   2.150   0.000  1.00  0.00    -0.532 OA
ENDBRANCH   9  11
ENDBRANCH   1   5
BRANCH   4  14
HETATM   14  C   UNL     1       3.972   9.328   0.000  1.00  0.00     0.159 C 
BRANCH  14  15
HETATM   15  C   UNL     1       4.233   7.851   0.000  1.00  0.00     0.140 A 
HETATM   16  O   UNL     1       3.191   6.772   0.000  1.00  0.00    -0.355 OA
HETATM   17  C   UNL     1       3.895   5.447   0.000  1.00  0.00     0.142 A 
HETATM   18  C   UNL     1       5.372   5.708   0.000  1.00  0.00     0.035 A 
HETATM   19  C   UNL     1       5.581   7.193   0.000  1.00  0.00     0.034 A 
ENDBRANCH  14  15
ENDBRANCH   4  14
TORSDOF 4
