REMARK  2 active torsions:
REMARK  status: ('A' for Active; 'I' for Inactive)
REMARK    1  A    between atoms: N_2  and  C_12 
REMARK    2  A    between atoms: N_5  and  C_11 
ROOT
HETATM    1  N   UNL     1      -1.574   7.774   0.000  1.00  0.00    -0.048 NA
HETATM    2  N   UNL     1       1.024   7.774   0.000  1.00  0.00    -0.069 NA
HETATM    3  C   UNL     1      -0.275   8.524   0.000  1.00  0.00     0.728 A 
HETATM    4  C   UNL     1      -1.574   6.274   0.000  1.00  0.00     0.141 A 
HETATM    5  C   UNL     1      -0.275   5.524   0.000  1.00  0.00     0.106 A 
HETATM    6  C   UNL     1       1.024   6.274   0.000  1.00  0.00     0.063 A 
HETATM    7  C   UNL     1       2.324   5.524   0.000  1.00  0.00     0.048 C 
ENDROOT
BRANCH   3   8
HETATM    8  N   UNL     1      -0.275  10.024   0.000  1.00  0.00    -0.178 N 
HETATM    9  C   UNL     1      -1.574  10.774   0.000  1.00  0.00     0.152 A 
HETATM   10  C   UNL     1      -1.574  12.274   0.000  1.00  0.00     0.167 A 
HETATM   11  O   UNL     1      -0.275  13.024   0.000  1.00  0.00    -0.350 OA
HETATM   12  C   UNL     1       1.024  12.274   0.000  1.00  0.00     0.167 A 
HETATM   13  C   UNL     1       1.024  10.774   0.000  1.00  0.00     0.152 A 
ENDBRANCH   3   8
BRANCH   4  14
HETATM   14  N   UNL     1      -2.873   5.524   0.000  1.00  0.00    -0.331 N 
HETATM   15  C   UNL     1      -4.172   6.274   0.000  1.00  0.00     0.135 A 
HETATM   16  C   UNL     1      -5.471   5.524   0.000  1.00  0.00     0.167 A 
HETATM   17  O   UNL     1      -5.471   4.024   0.000  1.00  0.00    -0.350 OA
HETATM   18  C   UNL     1      -4.172   3.275   0.000  1.00  0.00     0.167 A 
HETATM   19  C   UNL     1      -2.873   4.024   0.000  1.00  0.00     0.135 A 
ENDBRANCH   4  14
TORSDOF 2
