REMARK  4 active torsions:
REMARK  status: ('A' for Active; 'I' for Inactive)
REMARK    1  A    between atoms: C_10  and  C_11 
REMARK    2  A    between atoms: C_19  and  N_25 
REMARK    3  A    between atoms: C_20  and  C_21 
REMARK    4  A    between atoms: C_20  and  C_23 
REMARK       I    between atoms: C_23  and  N_25 
ROOT
HETATM    1  O   UNL     1      -2.620  -5.129   0.000  1.00  0.00    -0.080 OA
HETATM    2  N   UNL     1      -1.684  -6.302   0.000  1.00  0.00    -0.182 N 
HETATM    3  N   UNL     1      -0.222  -9.338   0.000  1.00  0.00    -0.231 NA
HETATM    4 CL   UNL     1       4.848  -6.153   0.000  1.00  0.00    -0.091 Cl
HETATM    5  C   UNL     1      -0.222  -5.968   0.000  1.00  0.00     0.080 A 
HETATM    6  C   UNL     1       0.951  -6.903   0.000  1.00  0.00     0.014 A 
HETATM    7  C   UNL     1       2.250  -6.153   0.000  1.00  0.00     0.062 A 
HETATM    8  C   UNL     1       3.549  -6.903   0.000  1.00  0.00     0.018 A 
HETATM    9  C   UNL     1       3.549  -8.403   0.000  1.00  0.00     0.040 A 
HETATM   10  C   UNL     1       0.951  -8.403   0.000  1.00  0.00     0.059 A 
HETATM   11  C   UNL     1       2.250  -9.153   0.000  1.00  0.00     0.051 A 
HETATM   12  C   UNL     1      -2.335  -7.653   0.000  1.00  0.00     0.145 A 
HETATM   13  C   UNL     1      -1.684  -9.005   0.000  1.00  0.00     0.165 A 
ENDROOT
BRANCH  13  14
HETATM   14  N   UNL     1      -2.620 -10.177   0.000  1.00  0.00    -0.292 N 
HETATM   15  C   UNL     1      -4.103  -9.954   0.000  1.00  0.00     0.172 C 
HETATM   16  O   UNL     1      -4.651  -8.558   0.000  1.00  0.00    -0.176 OA
HETATM   17  C   UNL     1      -2.072 -11.574   0.000  1.00  0.00     0.134 C 
BRANCH  15  18
HETATM   18  C   UNL     1      -5.038 -11.127   0.000  1.00  0.00     0.073 C 
BRANCH  18  19
HETATM   19  C   UNL     1      -6.521 -10.903   0.000  1.00  0.00     0.009 C 
HETATM   20  C   UNL     1      -7.457 -12.076   0.000  1.00  0.00     0.001 C 
ENDBRANCH  18  19
ENDBRANCH  15  18
ENDBRANCH  13  14
BRANCH   5  21
HETATM   21  C   UNL     1       0.112  -4.506   0.000  1.00  0.00    -0.026 A 
HETATM   22  C   UNL     1       1.545  -4.064   0.000  1.00  0.00     0.024 A 
HETATM   23  C   UNL     1       1.879  -2.601   0.000  1.00  0.00     0.004 A 
HETATM   24  C   UNL     1       0.779  -1.581   0.000  1.00  0.00     0.001 A 
HETATM   25  C   UNL     1      -0.654  -2.023   0.000  1.00  0.00     0.004 A 
HETATM   26  C   UNL     1      -0.988  -3.485   0.000  1.00  0.00     0.024 A 
ENDBRANCH   5  21
TORSDOF 4
