REMARK  1 active torsions:
REMARK  status: ('A' for Active; 'I' for Inactive)
REMARK    1  A    between atoms: C_6  and  C_14 
ROOT
HETATM    1  C   UNL     1       2.049  -7.500   0.000  1.00  0.00     0.010 A 
HETATM    2  C   UNL     1       0.750  -8.250   0.000  1.00  0.00     0.033 A 
HETATM    3  C   UNL     1       3.348  -8.250   0.000  1.00  0.00     0.064 A 
HETATM    4  C   UNL     1       3.348  -9.750   0.000  1.00  0.00     0.067 A 
HETATM    5  C   UNL     1       0.750  -9.750   0.000  1.00  0.00     0.026 A 
HETATM    6  C   UNL     1       2.049 -10.500   0.000  1.00  0.00    -0.046 A 
HETATM    7  C   UNL     1       5.018  -3.260   0.000  1.00  0.00     0.046 A 
HETATM    8  C   UNL     1       3.609  -3.773   0.000  1.00  0.00     0.063 A 
HETATM    9  C   UNL     1       5.279  -1.782   0.000  1.00  0.00     0.007 A 
HETATM   10  C   UNL     1       4.130  -0.818   0.000  1.00  0.00     0.007 A 
HETATM   11  C   UNL     1       2.459  -2.809   0.000  1.00  0.00     0.090 A 
HETATM   12  C   UNL     1       2.720  -1.331   0.000  1.00  0.00     0.053 A 
HETATM   13  C   UNL     1       2.049  -6.000   0.000  1.00  0.00     0.089 A 
HETATM   14  N   UNL     1       4.647  -7.500   0.000  1.00  0.00    -0.209 NA
HETATM   15  C   UNL     1       4.647  -6.000   0.000  1.00  0.00     0.285 A 
HETATM   16  O   UNL     1       5.946  -5.250   0.000  1.00  0.00    -0.148 OA
HETATM   17  N   UNL     1       3.348  -5.250   0.000  1.00  0.00    -0.271 N 
HETATM   18  O   UNL     1       1.050  -3.322   0.000  1.00  0.00    -0.307 OA
HETATM   19  C   UNL     1       0.789  -4.799   0.000  1.00  0.00     0.139 A 
ENDROOT
BRANCH   6  20
HETATM   20  C   UNL     1       2.049 -12.000   0.000  1.00  0.00    -0.051 C 
HETATM   21  C   UNL     1       0.750 -12.750   0.000  1.00  0.00     0.026 C 
HETATM   22  C   UNL     1       3.348 -12.750   0.000  1.00  0.00     0.026 C 
ENDBRANCH   6  20
TORSDOF 1
