REMARK  4 active torsions:
REMARK  status: ('A' for Active; 'I' for Inactive)
REMARK    1  A    between atoms: C_6  and  C_14 
REMARK    2  A    between atoms: C_8  and  N_20 
REMARK    3  A    between atoms: C_10  and  O_21 
REMARK    4  A    between atoms: O_21  and  C_22 
ROOT
HETATM    1  C   UNL     1       2.049 -11.250   0.000  1.00  0.00    -0.007 A 
HETATM    2  C   UNL     1       0.750 -12.000   0.000  1.00  0.00     0.029 A 
HETATM    3  C   UNL     1       3.348 -12.000   0.000  1.00  0.00     0.061 A 
HETATM    4  C   UNL     1       3.348 -13.500   0.000  1.00  0.00     0.067 A 
HETATM    5  C   UNL     1       0.750 -13.500   0.000  1.00  0.00     0.026 A 
HETATM    6  C   UNL     1       2.049 -14.250   0.000  1.00  0.00    -0.046 A 
HETATM    7  C   UNL     1       2.049  -9.750   0.000  1.00  0.00     0.133 A 
HETATM    8  N   UNL     1       4.647 -11.250   0.000  1.00  0.00    -0.209 NA
HETATM    9  C   UNL     1       4.647  -9.750   0.000  1.00  0.00     0.281 A 
HETATM   10  O   UNL     1       5.946  -9.000   0.000  1.00  0.00    -0.149 OA
HETATM   11  N   UNL     1       3.348  -9.000   0.000  1.00  0.00    -0.295 N 
ENDROOT
BRANCH  11  12
HETATM   12  C   UNL     1       3.348  -7.500   0.000  1.00  0.00     0.018 A 
HETATM   13  C   UNL     1       2.049  -6.750   0.000  1.00  0.00     0.042 A 
HETATM   14  C   UNL     1       2.049  -5.250   0.000  1.00  0.00     0.035 A 
HETATM   15  C   UNL     1       3.348  -4.500   0.000  1.00  0.00     0.116 A 
HETATM   16  C   UNL     1       4.647  -5.250   0.000  1.00  0.00     0.035 A 
HETATM   17  C   UNL     1       4.647  -6.750   0.000  1.00  0.00     0.042 A 
BRANCH  15  18
HETATM   18  O   UNL     1       3.348  -3.000   0.000  1.00  0.00    -0.357 OA
BRANCH  18  19
HETATM   19  C   UNL     1       2.049  -2.250   0.000  1.00  0.00     0.142 C 
HETATM   20  C   UNL     1       2.049  -0.750   0.000  1.00  0.00     0.035 C 
ENDBRANCH  18  19
ENDBRANCH  15  18
ENDBRANCH  11  12
BRANCH   6  21
HETATM   21  C   UNL     1       2.049 -15.750   0.000  1.00  0.00    -0.051 C 
HETATM   22  C   UNL     1       0.750 -16.500   0.000  1.00  0.00     0.026 C 
HETATM   23  C   UNL     1       3.348 -16.500   0.000  1.00  0.00     0.026 C 
ENDBRANCH   6  21
TORSDOF 4
