REMARK  0 active torsions:
REMARK  status: ('A' for Active; 'I' for Inactive)
ROOT
HETATM    1  O   UNL     1      -4.050  -2.091   0.000  1.00  0.00     0.000 OA
HETATM    2  O   UNL     1      -4.050  -4.689   0.000  1.00  0.00     0.000 OA
HETATM    3  C   UNL     1      -2.418  -2.177   0.000  1.00  0.00     0.003 A 
HETATM    4  C   UNL     1      -3.300  -3.390   0.000  1.00  0.00     0.033 A 
HETATM    5  C   UNL     1      -0.992  -2.640   0.000  1.00  0.00     0.003 A 
HETATM    6  C   UNL     1      -0.992  -4.140   0.000  1.00  0.00     0.033 A 
HETATM    7  C   UNL     1      -2.418  -4.604   0.000  1.00  0.00     0.152 A 
HETATM    8  C   UNL     1      -5.550  -2.091   0.000  1.00  0.00     0.000 A 
HETATM    9  C   UNL     1      -6.300  -3.390   0.000  1.00  0.00     0.000 A 
HETATM   10  C   UNL     1      -5.550  -4.689   0.000  1.00  0.00     0.000 A 
HETATM   11  C   UNL     1      -7.449  -2.426   0.000  1.00  0.00     0.000 C 
HETATM   12  C   UNL     1      -7.449  -4.354   0.000  1.00  0.00     0.000 C 
HETATM   13  C   UNL     1      -2.882  -0.750   0.000  1.00  0.00     0.000 C 
HETATM   14  O   UNL     1      -2.882  -6.030   0.000  1.00  0.00    -0.224 OA
ENDROOT
TORSDOF 0
