REMARK  2 active torsions:
REMARK  status: ('A' for Active; 'I' for Inactive)
REMARK    1  A    between atoms: N_3  and  C_10 
REMARK    2  A    between atoms: C_13  and  N_16 
ROOT
HETATM    1  N   UNL     1       2.418  -8.659   0.000  1.00  0.00    -0.226 NA
HETATM    2  N   UNL     1       2.147  -6.075   0.000  1.00  0.00    -0.226 NA
HETATM    3  N   UNL     1       4.520  -4.705   0.000  1.00  0.00    -0.221 N 
HETATM    4  N   UNL     1       5.947  -5.168   0.000  1.00  0.00    -0.110 NA
HETATM    5  C   UNL     1       3.639  -5.918   0.000  1.00  0.00     0.158 A 
HETATM    6  C   UNL     1       4.520  -7.132   0.000  1.00  0.00     0.068 A 
HETATM    7  C   UNL     1       3.910  -8.502   0.000  1.00  0.00     0.156 A 
HETATM    8  C   UNL     1       5.947  -6.668   0.000  1.00  0.00     0.147 A 
HETATM    9  C   UNL     1       1.537  -7.446   0.000  1.00  0.00     0.254 A 
ENDROOT
BRANCH   3  10
HETATM   10  C   UNL     1       4.057  -3.278   0.000  1.00  0.00     0.151 A 
HETATM   11  O   UNL     1       5.060  -2.164   0.000  1.00  0.00    -0.318 OA
HETATM   12  C   UNL     1       4.597  -0.737   0.000  1.00  0.00     0.150 A 
HETATM   13  C   UNL     1       3.130  -0.425   0.000  1.00  0.00     0.033 A 
HETATM   14  C   UNL     1       2.126  -1.540   0.000  1.00  0.00     0.011 A 
HETATM   15  C   UNL     1       2.590  -2.966   0.000  1.00  0.00     0.071 A 
ENDBRANCH   3  10
BRANCH   7  16
HETATM   16  N   UNL     1       4.792  -9.716   0.000  1.00  0.00    -0.251 NA
HETATM   17  C   UNL     1       4.182 -11.086   0.000  1.00  0.00     0.154 C 
ENDBRANCH   7  16
TORSDOF 2
