REMARK  2 active torsions:
REMARK  status: ('A' for Active; 'I' for Inactive)
REMARK    1  A    between atoms: C_6  and  N_8 
REMARK    2  A    between atoms: N_8  and  C_9 
ROOT
HETATM    1  C   UNL     1       4.500  -2.015   0.000  1.00  0.00     0.097 A 
HETATM    2  C   UNL     1       3.201  -1.266   0.000  1.00  0.00     0.025 C 
HETATM    3  C   UNL     1       5.250  -0.716   0.000  1.00  0.00     0.025 C 
HETATM    4  C   UNL     1       5.799  -2.765   0.000  1.00  0.00     0.087 A 
HETATM    5  N   UNL     1       3.750  -3.314   0.000  1.00  0.00    -0.251 NA
HETATM    6  C   UNL     1       4.500  -4.614   0.000  1.00  0.00     0.181 A 
HETATM    7  S   UNL     1       6.000  -4.614   0.000  1.00  0.00    -0.074 SA
ENDROOT
BRANCH   6   8
HETATM    8  N   UNL     1       3.750  -5.913   0.000  1.00  0.00    -0.252 NA
BRANCH   8   9
HETATM    9  C   UNL     1       2.250  -5.913   0.000  1.00  0.00     0.087 C 
HETATM   10  C   UNL     1       2.250  -4.413   0.000  1.00  0.00     0.025 C 
HETATM   11  C   UNL     1       0.750  -5.913   0.000  1.00  0.00     0.025 C 
HETATM   12  C   UNL     1       2.250  -7.413   0.000  1.00  0.00     0.025 C 
ENDBRANCH   8   9
ENDBRANCH   6   8
TORSDOF 2
