REMARK  2 active torsions:
REMARK  status: ('A' for Active; 'I' for Inactive)
REMARK    1  A    between atoms: C_7  and  N_16 
REMARK    2  A    between atoms: C_12  and  N_16 
ROOT
HETATM    1 CL   UNL     1      -4.172   6.274   0.000  1.00  0.00    -0.066 Cl
HETATM    2  N   UNL     1      -2.873   4.024   0.000  1.00  0.00    -0.207 NA
HETATM    3  N   UNL     1      -0.275   4.024   0.000  1.00  0.00    -0.199 NA
HETATM    4  C   UNL     1      -1.574   6.274   0.000  1.00  0.00     0.123 A 
HETATM    5  C   UNL     1      -0.275   5.524   0.000  1.00  0.00     0.148 A 
HETATM    6  C   UNL     1      -2.873   5.524   0.000  1.00  0.00     0.126 A 
HETATM    7  C   UNL     1      -1.574   3.275   0.000  1.00  0.00     0.239 A 
HETATM    8  N   UNL     1      -1.573   1.774   0.000  1.00  0.00    -0.060 NA
ENDROOT
BRANCH   5   9
HETATM    9  N   UNL     1       1.024   6.274   0.000  1.00  0.00    -0.234 NA
BRANCH   9  10
HETATM   10  C   UNL     1       1.024   7.774   0.000  1.00  0.00     0.067 A 
HETATM   11  C   UNL     1      -0.275   8.524   0.000  1.00  0.00     0.046 A 
HETATM   12  C   UNL     1      -0.275  10.024   0.000  1.00  0.00     0.007 A 
HETATM   13  C   UNL     1       1.024  10.774   0.000  1.00  0.00     0.006 A 
HETATM   14  C   UNL     1       2.324  10.024   0.000  1.00  0.00     0.039 A 
HETATM   15  C   UNL     1       2.324   8.524   0.000  1.00  0.00     0.049 A 
HETATM   16 CL   UNL     1       3.623   7.774   0.000  1.00  0.00    -0.086 Cl
ENDBRANCH   9  10
ENDBRANCH   5   9
TORSDOF 2
