REMARK  2 active torsions:
REMARK  status: ('A' for Active; 'I' for Inactive)
REMARK    1  A    between atoms: C_10  and  C_15 
REMARK    2  A    between atoms: C_11  and  C_12 
ROOT
HETATM    1  O   UNL     1      -8.250  -0.750   0.000  1.00  0.00    -0.299 OA
HETATM    2  O   UNL     1      -8.250  -3.348   0.000  1.00  0.00    -0.299 OA
HETATM    3  O   UNL     1      -3.750  -0.750   0.000  1.00  0.00    -0.299 OA
HETATM    4  O   UNL     1      -3.750  -3.348   0.000  1.00  0.00    -0.299 OA
HETATM    5  C   UNL     1      -5.250  -0.750   0.000  1.00  0.00     0.111 A 
HETATM    6  C   UNL     1      -6.000  -2.049   0.000  1.00  0.00     0.164 A 
HETATM    7  C   UNL     1      -6.750  -0.750   0.000  1.00  0.00     0.111 A 
HETATM    8  C   UNL     1      -5.250  -3.348   0.000  1.00  0.00     0.111 A 
HETATM    9  C   UNL     1      -6.750  -3.348   0.000  1.00  0.00     0.111 A 
HETATM   10  C   UNL     1      -3.000  -2.049   0.000  1.00  0.00     0.336 A 
HETATM   11  C   UNL     1      -9.000  -2.049   0.000  1.00  0.00     0.336 A 
ENDROOT
BRANCH  10  12
HETATM   12  C   UNL     1      -1.500  -2.049   0.000  1.00  0.00     0.246 C 
HETATM   13  O   UNL     1      -0.750  -0.750   0.000  1.00  0.00    -0.644 OA
HETATM   14  O   UNL     1      -0.750  -3.348   0.000  1.00  0.00    -0.644 OA
ENDBRANCH  10  12
BRANCH  11  15
HETATM   15  C   UNL     1     -10.500  -2.049   0.000  1.00  0.00     0.246 C 
HETATM   16  O   UNL     1     -11.250  -0.750   0.000  1.00  0.00    -0.644 OA
HETATM   17  O   UNL     1     -11.250  -3.348   0.000  1.00  0.00    -0.644 OA
ENDBRANCH  11  15
TORSDOF 2
