REMARK  0 active torsions:
REMARK  status: ('A' for Active; 'I' for Inactive)
ROOT
HETATM    1  C   UNL     1       1.076   1.045   0.000  1.00  0.00     0.005 A 
HETATM    2  C   UNL     1       0.000   0.000   0.000  1.00  0.00     0.001 A 
HETATM    3  C   UNL     1       2.121  -0.031   0.000  1.00  0.00     0.061 A 
HETATM    4  C   UNL     1      -1.045   1.076   0.000  1.00  0.00     0.005 A 
HETATM    5  C   UNL     1      -2.121   0.031   0.000  1.00  0.00     0.061 A 
HETATM    6  C   UNL     1       1.045  -1.076   0.000  1.00  0.00     0.005 A 
HETATM    7  C   UNL     1      -1.076  -1.045   0.000  1.00  0.00     0.005 A 
HETATM    8  C   UNL     1      -3.166   1.107   0.000  1.00  0.00     0.185 A 
HETATM    9  O   UNL     1      -4.621   0.740   0.000  1.00  0.00    -0.221 OA
HETATM   10  O   UNL     1      -4.640  -0.605   0.000  1.00  0.00    -0.221 OA
HETATM   11  C   UNL     1      -3.197  -1.014   0.000  1.00  0.00     0.185 A 
HETATM   12  C   UNL     1       3.166  -1.107   0.000  1.00  0.00     0.185 A 
HETATM   13  O   UNL     1       4.621  -0.740   0.000  1.00  0.00    -0.221 OA
HETATM   14  C   UNL     1       3.197   1.014   0.000  1.00  0.00     0.185 A 
HETATM   15  O   UNL     1       4.640   0.605   0.000  1.00  0.00    -0.221 OA
ENDROOT
TORSDOF 0
