REMARK  3 active torsions:
REMARK  status: ('A' for Active; 'I' for Inactive)
REMARK    1  A    between atoms: C_9  and  C_19 
REMARK    2  A    between atoms: C_13  and  S_18 
REMARK    3  A    between atoms: S_18  and  C_19 
ROOT
HETATM    1  S   UNL     1      -4.821  -6.649   0.000  1.00  0.00    -0.073 SA
ENDROOT
BRANCH   1   2
HETATM    2  C   UNL     1      -6.120  -7.399   0.000  1.00  0.00     0.167 A 
HETATM    3  N   UNL     1      -7.419  -6.649   0.000  1.00  0.00    -0.350 N 
HETATM    4  C   UNL     1      -8.718  -7.399   0.000  1.00  0.00     0.126 A 
HETATM    5  H   UNL     1      -7.419  -5.149   0.000  1.00  0.00     0.163 HD
HETATM    6  C   UNL     1      -8.718  -8.899   0.000  1.00  0.00     0.022 A 
HETATM    7  C   UNL     1      -7.419  -9.649   0.000  1.00  0.00     0.208 A 
HETATM    8  C   UNL     1     -10.017  -9.649   0.000  1.00  0.00     0.032 C 
HETATM    9  O   UNL     1      -7.419 -11.149   0.000  1.00  0.00    -0.170 OA
HETATM   10  N   UNL     1      -6.120  -8.899   0.000  1.00  0.00    -0.198 NA
ENDBRANCH   1   2
BRANCH   1  11
HETATM   11  C   UNL     1      -4.821  -5.149   0.000  1.00  0.00     0.088 C 
BRANCH  11  12
HETATM   12  C   UNL     1      -3.522  -4.399   0.000  1.00  0.00    -0.026 A 
HETATM   13  C   UNL     1      -3.522  -2.900   0.000  1.00  0.00     0.029 A 
HETATM   14  C   UNL     1      -2.223  -2.150   0.000  1.00  0.00     0.038 A 
HETATM   15  C   UNL     1      -0.924  -2.900   0.000  1.00  0.00     0.019 A 
HETATM   16 CL   UNL     1       0.375  -2.150   0.000  1.00  0.00    -0.091 Cl
HETATM   17  C   UNL     1      -0.924  -4.399   0.000  1.00  0.00     0.071 A 
HETATM   18  C   UNL     1      -2.223  -5.149   0.000  1.00  0.00     0.033 A 
HETATM   19 CL   UNL     1      -2.223  -6.649   0.000  1.00  0.00    -0.087 Cl
ENDBRANCH  11  12
ENDBRANCH   1  11
TORSDOF 3
