REMARK  2 active torsions:
REMARK  status: ('A' for Active; 'I' for Inactive)
REMARK    1  A    between atoms: N_4  and  C_12 
REMARK    2  A    between atoms: C_11  and  C_12 
ROOT
HETATM    1  C   UNL     1       5.946   3.000   0.000  1.00  0.00     0.252 A 
HETATM    2  C   UNL     1       3.348   3.000   0.000  1.00  0.00     0.207 A 
HETATM    3  C   UNL     1       4.647   0.750   0.000  1.00  0.00     0.207 A 
HETATM    4  N   UNL     1       3.348   1.500   0.000  1.00  0.00    -0.329 N 
HETATM    5  H   UNL     1       4.647   5.250   0.000  1.00  0.00     0.166 HD
HETATM    6  N   UNL     1       4.647   3.750   0.000  1.00  0.00    -0.320 N 
HETATM    7  N   UNL     1       5.946   1.500   0.000  1.00  0.00    -0.320 N 
HETATM    8  O   UNL     1       7.245   3.750   0.000  1.00  0.00    -0.152 OA
HETATM    9  H   UNL     1       7.245   0.750   0.000  1.00  0.00     0.166 HD
ENDROOT
BRANCH   4  10
HETATM   10  C   UNL     1       2.049   0.750   0.000  1.00  0.00     0.136 C 
BRANCH  10  11
HETATM   11  C   UNL     1       0.750   1.500   0.000  1.00  0.00     0.206 C 
HETATM   12  O   UNL     1       0.750   3.000   0.000  1.00  0.00    -0.219 OA
ENDBRANCH  10  11
ENDBRANCH   4  10
TORSDOF 2
