REMARK  0 active torsions:
REMARK  status: ('A' for Active; 'I' for Inactive)
ROOT
HETATM    1  O   UNL     1      -3.621   2.956   0.000  1.00  0.00    -0.151 OA
HETATM    2  H   UNL     1      -0.517   1.948   0.000  1.00  0.00     0.171 HD
HETATM    3  N   UNL     1      -0.981   3.375   0.000  1.00  0.00    -0.302 N 
HETATM    4  N   UNL     1      -2.407   5.338   0.000  1.00  0.00    -0.330 N 
HETATM    5  H   UNL     1      -3.621   6.220   0.000  1.00  0.00     0.197 HD
HETATM    6  O   UNL     1       1.401   4.588   0.000  1.00  0.00    -0.320 OA
HETATM    7  N   UNL     1       1.617   8.802   0.000  1.00  0.00    -0.279 NA
HETATM    8  C   UNL     1      -5.130   9.271   0.000  1.00  0.00     0.004 A 
HETATM    9  C   UNL     1      -5.025   7.774   0.000  1.00  0.00     0.019 A 
HETATM   10  C   UNL     1      -3.886  10.109   0.000  1.00  0.00     0.005 A 
HETATM   11  C   UNL     1      -3.677   7.117   0.000  1.00  0.00    -0.058 A 
HETATM   12  C   UNL     1      -2.538   9.452   0.000  1.00  0.00     0.022 A 
HETATM   13  C   UNL     1      -2.433   7.955   0.000  1.00  0.00    -0.048 A 
HETATM   14  C   UNL     1       2.917   8.052   0.000  1.00  0.00     0.127 A 
HETATM   15  C   UNL     1       2.917   6.552   0.000  1.00  0.00     0.057 A 
HETATM   16  C   UNL     1       1.617   5.802   0.000  1.00  0.00     0.132 A 
HETATM   17  C   UNL     1       0.319   6.552   0.000  1.00  0.00     0.091 A 
HETATM   18  C   UNL     1       0.319   8.052   0.000  1.00  0.00     0.041 A 
HETATM   19  C   UNL     1      -0.981   5.802   0.000  1.00  0.00     0.135 A 
HETATM   20  C   UNL     1      -0.099   4.588   0.000  1.00  0.00     0.153 A 
HETATM   21  C   UNL     1      -2.407   3.838   0.000  1.00  0.00     0.255 A 
HETATM   22  C   UNL     1      -1.085   7.298   0.000  1.00  0.00     0.079 A 
ENDROOT
TORSDOF 0
