REMARK  3 active torsions:
REMARK  status: ('A' for Active; 'I' for Inactive)
REMARK    1  A    between atoms: C_6  and  C_7 
REMARK    2  A    between atoms: C_7  and  C_8 
REMARK    3  A    between atoms: C_7  and  C_10 
ROOT
HETATM    1  H   UNL     1      -4.446  -2.233   0.000  1.00  0.00     0.162 HD
HETATM    2  N   UNL     1      -4.446  -3.733   0.000  1.00  0.00    -0.358 N 
HETATM    3  N   UNL     1      -3.696  -6.041   0.000  1.00  0.00    -0.253 NA
HETATM    4  C   UNL     1      -5.659  -4.615   0.000  1.00  0.00     0.126 A 
HETATM    5  C   UNL     1      -5.196  -6.041   0.000  1.00  0.00     0.151 A 
HETATM    6  C   UNL     1      -3.232  -4.615   0.000  1.00  0.00     0.124 A 
ENDROOT
BRANCH   6   7
HETATM    7  C   UNL     1      -1.806  -4.151   0.000  1.00  0.00    -0.011 C 
BRANCH   7   8
HETATM    8  C   UNL     1      -0.691  -5.155   0.000  1.00  0.00     0.025 C 
HETATM    9  C   UNL     1       0.736  -4.691   0.000  1.00  0.00     0.005 C 
ENDBRANCH   7   8
BRANCH   7  10
HETATM   10  C   UNL     1      -1.494  -2.684   0.000  1.00  0.00     0.025 C 
HETATM   11  C   UNL     1      -0.067  -2.220   0.000  1.00  0.00     0.005 C 
ENDBRANCH   7  10
ENDBRANCH   6   7
TORSDOF 3
