REMARK  4 active torsions:
REMARK  status: ('A' for Active; 'I' for Inactive)
REMARK    1  A    between atoms: C_5  and  C_6 
REMARK    2  A    between atoms: C_5  and  N_20 
REMARK    3  A    between atoms: C_6  and  S_22 
REMARK    4  A    between atoms: C_12  and  S_22 
ROOT
HETATM    1  C   UNL     1      -6.955  -2.374   0.000  1.00  0.00     0.116 C 
ENDROOT
BRANCH   1   2
HETATM    2  C   UNL     1      -8.254  -3.124   0.000  1.00  0.00     0.088 C 
BRANCH   2   3
HETATM    3  S   UNL     1      -9.553  -2.374   0.000  1.00  0.00    -0.092 SA
BRANCH   3   4
HETATM    4  C   UNL     1     -10.852  -3.124   0.000  1.00  0.00     0.124 A 
HETATM    5  C   UNL     1     -12.152  -2.374   0.000  1.00  0.00     0.136 A 
HETATM    6  C   UNL     1     -13.451  -3.124   0.000  1.00  0.00     0.177 A 
HETATM    7  N   UNL     1     -12.463  -0.907   0.000  1.00  0.00    -0.239 NA
HETATM    8  N   UNL     1     -13.451  -4.624   0.000  1.00  0.00    -0.225 NA
HETATM    9  N   UNL     1     -14.565  -2.120   0.000  1.00  0.00    -0.225 NA
HETATM   10  C   UNL     1     -12.152  -5.374   0.000  1.00  0.00     0.253 A 
HETATM   11  N   UNL     1     -10.852  -4.624   0.000  1.00  0.00    -0.236 NA
HETATM   12  C   UNL     1     -13.955  -0.750   0.000  1.00  0.00     0.253 A 
ENDBRANCH   3   4
ENDBRANCH   2   3
ENDBRANCH   1   2
BRANCH   1  13
HETATM   13  N   UNL     1      -5.656  -3.124   0.000  1.00  0.00    -0.317 N 
HETATM   14  C   UNL     1      -5.656  -4.624   0.000  1.00  0.00     0.233 A 
HETATM   15  N   UNL     1      -4.357  -5.374   0.000  1.00  0.00    -0.228 NA
HETATM   16  C   UNL     1      -3.058  -4.624   0.000  1.00  0.00     0.155 A 
HETATM   17  C   UNL     1      -3.058  -3.124   0.000  1.00  0.00     0.137 A 
HETATM   18  N   UNL     1      -1.632  -5.088   0.000  1.00  0.00    -0.338 N 
HETATM   19  C   UNL     1      -4.357  -2.374   0.000  1.00  0.00     0.134 A 
HETATM   20  N   UNL     1      -1.632  -2.660   0.000  1.00  0.00    -0.241 NA
HETATM   21  S   UNL     1      -4.357  -0.874   0.000  1.00  0.00    -0.058 SA
HETATM   22  C   UNL     1      -0.750  -3.874   0.000  1.00  0.00     0.229 A 
HETATM   23  H   UNL     1      -1.168  -6.514   0.000  1.00  0.00     0.164 HD
ENDBRANCH   1  13
TORSDOF 4
