REMARK  1 active torsions:
REMARK  status: ('A' for Active; 'I' for Inactive)
REMARK    1  A    between atoms: C_1  and  C_11 
ROOT
HETATM    1  C   UNL     1      -0.924  -4.399   0.000  1.00  0.00     0.033 A 
HETATM    2  C   UNL     1      -2.223  -5.149   0.000  1.00  0.00    -0.030 A 
HETATM    3  C   UNL     1       0.375  -5.149   0.000  1.00  0.00     0.107 A 
HETATM    4  C   UNL     1      -3.522  -4.399   0.000  1.00  0.00     0.025 A 
HETATM    5  C   UNL     1      -4.821  -5.149   0.000  1.00  0.00     0.005 A 
HETATM    6  C   UNL     1       0.375  -6.649   0.000  1.00  0.00     0.058 A 
HETATM    7  C   UNL     1      -2.223  -6.649   0.000  1.00  0.00    -0.048 A 
HETATM    8  C   UNL     1      -4.821  -6.649   0.000  1.00  0.00     0.005 A 
HETATM    9  C   UNL     1      -0.924  -7.399   0.000  1.00  0.00     0.029 A 
HETATM   10  C   UNL     1      -3.522  -7.399   0.000  1.00  0.00     0.022 A 
HETATM   11  O   UNL     1       1.674  -4.399   0.000  1.00  0.00    -0.195 OA
ENDROOT
BRANCH   1  12
HETATM   12  C   UNL     1      -0.924  -2.900   0.000  1.00  0.00     0.366 C 
HETATM   13  N   UNL     1      -2.223  -2.150   0.000  1.00  0.00     0.623 N 
ENDBRANCH   1  12
TORSDOF 1
