REMARK  6 active torsions:
REMARK  status: ('A' for Active; 'I' for Inactive)
REMARK    1  A    between atoms: C_2  and  N_24 
REMARK    2  A    between atoms: C_9  and  C_23 
REMARK    3  A    between atoms: C_11  and  C_20 
REMARK    4  A    between atoms: C_15  and  N_19 
REMARK    5  A    between atoms: N_19  and  C_20 
REMARK    6  A    between atoms: C_23  and  N_24 
ROOT
HETATM    1  C   UNL     1      -8.169   2.350   0.000  1.00  0.00     0.079 A 
HETATM    2  C   UNL     1      -9.468   3.100   0.000  1.00  0.00     0.107 A 
HETATM    3  C   UNL     1      -8.169   0.851   0.000  1.00  0.00     0.008 A 
HETATM    4  C   UNL     1      -9.468   0.101   0.000  1.00  0.00     0.107 A 
HETATM    5  C   UNL     1     -10.767   2.350   0.000  1.00  0.00     0.008 A 
HETATM    6  C   UNL     1     -10.767   0.851   0.000  1.00  0.00     0.079 A 
HETATM    7  O   UNL     1      -9.468   4.601   0.000  1.00  0.00    -0.195 OA
HETATM    8  O   UNL     1      -9.468  -1.399   0.000  1.00  0.00    -0.195 OA
ENDROOT
BRANCH   3   9
HETATM    9  C   UNL     1      -6.870   0.101   0.000  1.00  0.00     0.149 C 
BRANCH   9  10
HETATM   10  N   UNL     1      -5.571   0.851   0.000  1.00  0.00    -0.275 NA
BRANCH  10  11
HETATM   11  C   UNL     1      -4.272   0.101   0.000  1.00  0.00     0.032 A 
HETATM   12  C   UNL     1      -2.973   0.851   0.000  1.00  0.00     0.041 A 
HETATM   13  C   UNL     1      -1.674   0.101   0.000  1.00  0.00     0.006 A 
HETATM   14  C   UNL     1      -1.674  -1.399   0.000  1.00  0.00     0.001 A 
HETATM   15  C   UNL     1      -2.973  -2.150   0.000  1.00  0.00     0.006 A 
HETATM   16  C   UNL     1      -4.272  -1.399   0.000  1.00  0.00     0.041 A 
ENDBRANCH  10  11
ENDBRANCH   9  10
ENDBRANCH   3   9
BRANCH   5  17
HETATM   17  C   UNL     1     -12.066   3.100   0.000  1.00  0.00     0.149 C 
BRANCH  17  18
HETATM   18  N   UNL     1     -13.365   2.350   0.000  1.00  0.00    -0.275 NA
BRANCH  18  19
HETATM   19  C   UNL     1     -14.664   3.100   0.000  1.00  0.00     0.032 A 
HETATM   20  C   UNL     1     -14.664   4.601   0.000  1.00  0.00     0.041 A 
HETATM   21  C   UNL     1     -15.963   5.350   0.000  1.00  0.00     0.006 A 
HETATM   22  C   UNL     1     -17.262   4.600   0.000  1.00  0.00     0.001 A 
HETATM   23  C   UNL     1     -17.262   3.100   0.000  1.00  0.00     0.006 A 
HETATM   24  C   UNL     1     -15.963   2.350   0.000  1.00  0.00     0.041 A 
ENDBRANCH  18  19
ENDBRANCH  17  18
ENDBRANCH   5  17
TORSDOF 6
