REMARK  0 active torsions:
REMARK  status: ('A' for Active; 'I' for Inactive)
ROOT
HETATM    1  N   UNL     1       0.128  -2.475   0.000  1.00  0.00    -0.134 NA
HETATM    2  C   UNL     1       2.091  -3.901   0.000  1.00  0.00     0.111 A 
HETATM    3  C   UNL     1       0.878  -4.783   0.000  1.00  0.00     0.035 A 
HETATM    4  C   UNL     1      -0.336  -3.901   0.000  1.00  0.00     0.085 A 
HETATM    5  C   UNL     1      -1.549  -4.783   0.000  1.00  0.00     0.029 A 
HETATM    6  C   UNL     1      -3.017  -4.471   0.000  1.00  0.00    -0.051 A 
HETATM    7  C   UNL     1      -4.020  -5.586   0.000  1.00  0.00    -0.059 A 
HETATM    8  C   UNL     1       0.414  -6.210   0.000  1.00  0.00    -0.003 A 
HETATM    9  C   UNL     1      -1.086  -6.210   0.000  1.00  0.00     0.018 A 
HETATM   10  C   UNL     1      -3.557  -7.013   0.000  1.00  0.00     0.037 A 
HETATM   11  C   UNL     1      -2.090  -7.324   0.000  1.00  0.00     0.012 A 
HETATM   12  C   UNL     1      -4.561  -8.127   0.000  1.00  0.00     0.002 A 
HETATM   13  C   UNL     1      -6.028  -7.815   0.000  1.00  0.00     0.006 A 
HETATM   14  C   UNL     1      -7.031  -8.930   0.000  1.00  0.00     0.033 A 
HETATM   15  C   UNL     1      -1.626  -8.751   0.000  1.00  0.00    -0.006 A 
HETATM   16  C   UNL     1      -4.097  -9.554   0.000  1.00  0.00     0.003 A 
HETATM   17  C   UNL     1      -6.568 -10.357   0.000  1.00  0.00     0.152 A 
HETATM   18  C   UNL     1      -2.630  -9.866   0.000  1.00  0.00    -0.000 A 
HETATM   19  C   UNL     1      -5.101 -10.668   0.000  1.00  0.00     0.033 A 
HETATM   20  O   UNL     1      -7.572 -11.471   0.000  1.00  0.00    -0.224 OA
HETATM   21  C   UNL     1      -5.024  -6.701   0.000  1.00  0.00     0.012 A 
HETATM   22  C   UNL     1      -1.861  -3.316   0.000  1.00  0.00     0.039 A 
HETATM   23  N   UNL     1       1.628  -2.475   0.000  1.00  0.00    -0.132 NA
ENDROOT
TORSDOF 0
