REMARK  1 active torsions:
REMARK  status: ('A' for Active; 'I' for Inactive)
REMARK    1  A    between atoms: C_9  and  C_11 
ROOT
HETATM    1  H   UNL     1      -0.275  -1.024   0.000  1.00  0.00     0.160 HD
HETATM    2  N   UNL     1      -0.275  -2.525   0.000  1.00  0.00    -0.374 N 
HETATM    3  N   UNL     1      -0.275  -5.524   0.000  1.00  0.00    -0.374 N 
HETATM    4  H   UNL     1      -0.275  -7.024   0.000  1.00  0.00     0.160 HD
HETATM    5  C   UNL     1      -2.873  -2.525   0.000  1.00  0.00     0.049 A 
HETATM    6  C   UNL     1      -1.573  -3.275   0.000  1.00  0.00     0.042 A 
HETATM    7  C   UNL     1      -4.172  -3.275   0.000  1.00  0.00     0.028 A 
HETATM    8  C   UNL     1      -1.573  -4.774   0.000  1.00  0.00     0.045 A 
HETATM    9  C   UNL     1      -4.172  -4.774   0.000  1.00  0.00    -0.046 A 
HETATM   10  C   UNL     1      -2.873  -5.524   0.000  1.00  0.00     0.066 A 
HETATM   11  C   UNL     1       1.024  -3.275   0.000  1.00  0.00     0.122 A 
HETATM   12  C   UNL     1       1.024  -4.774   0.000  1.00  0.00     0.122 A 
ENDROOT
BRANCH   9  13
HETATM   13  C   UNL     1      -5.471  -5.524   0.000  1.00  0.00    -0.052 A 
HETATM   14  C   UNL     1      -5.471  -7.024   0.000  1.00  0.00     0.021 A 
HETATM   15  C   UNL     1      -6.770  -7.774   0.000  1.00  0.00     0.004 A 
HETATM   16  C   UNL     1      -8.069  -7.024   0.000  1.00  0.00     0.001 A 
HETATM   17  C   UNL     1      -8.069  -5.524   0.000  1.00  0.00     0.004 A 
HETATM   18  C   UNL     1      -6.770  -4.774   0.000  1.00  0.00     0.021 A 
ENDBRANCH   9  13
TORSDOF 1
