REMARK  1 active torsions:
REMARK  status: ('A' for Active; 'I' for Inactive)
REMARK    1  A    between atoms: C_8  and  C_9 
ROOT
HETATM    1  C   UNL     1      -1.491   5.201   0.000  1.00  0.00     0.030 C 
HETATM    2  C   UNL     1       0.009   5.201   0.000  1.00  0.00    -0.006 A 
HETATM    3  C   UNL     1       0.759   6.500   0.000  1.00  0.00     0.151 A 
HETATM    4  N   UNL     1       2.259   6.500   0.000  1.00  0.00    -0.239 NA
HETATM    5  C   UNL     1       3.009   5.201   0.000  1.00  0.00     0.216 A 
HETATM    6  S   UNL     1       4.509   5.201   0.000  1.00  0.00    -0.037 SA
HETATM    7  N   UNL     1       2.259   3.902   0.000  1.00  0.00    -0.223 NA
HETATM    8  C   UNL     1       0.759   3.902   0.000  1.00  0.00     0.055 A 
ENDROOT
BRANCH   8   9
HETATM    9  C   UNL     1       0.009   2.603   0.000  1.00  0.00     0.045 C 
HETATM   10  C   UNL     1       0.759   1.304   0.000  1.00  0.00     0.007 C 
ENDBRANCH   8   9
TORSDOF 1
