REMARK  0 active torsions:
REMARK  status: ('A' for Active; 'I' for Inactive)
ROOT
HETATM    1  H   UNL     1      -5.109  -6.816   0.000  1.00  0.00     0.170 HD
HETATM    2  N   UNL     1      -3.810  -6.066   0.000  1.00  0.00    -0.306 N 
HETATM    3  N   UNL     1      -2.510  -3.816   0.000  1.00  0.00    -0.198 NA
HETATM    4  O   UNL     1      -2.510  -8.316   0.000  1.00  0.00    -0.171 OA
HETATM    5  N   UNL     1       0.215  -4.102   0.000  1.00  0.00    -0.259 N 
HETATM    6  N   UNL     1       1.097  -5.316   0.000  1.00  0.00    -0.115 NA
HETATM    7  C   UNL     1      -1.212  -4.566   0.000  1.00  0.00     0.158 A 
HETATM    8  C   UNL     1      -1.212  -6.066   0.000  1.00  0.00     0.074 A 
HETATM    9  C   UNL     1      -2.510  -6.816   0.000  1.00  0.00     0.193 A 
HETATM   10  C   UNL     1       0.215  -6.529   0.000  1.00  0.00     0.147 A 
HETATM   11  C   UNL     1      -3.810  -4.566   0.000  1.00  0.00     0.218 A 
HETATM   12  N   UNL     1      -5.109  -3.816   0.000  1.00  0.00    -0.061 NA
HETATM   13  C   UNL     1       0.679  -2.675   0.000  1.00  0.00     0.149 C 
ENDROOT
TORSDOF 0
