REMARK  1 active torsions:
REMARK  status: ('A' for Active; 'I' for Inactive)
REMARK    1  A    between atoms: C_11  and  C_12 
ROOT
HETATM    1  O   UNL     1       3.483  10.532   0.000  1.00  0.00    -0.193 OA
HETATM    2  C   UNL     1       0.884  10.532   0.000  1.00  0.00     0.153 A 
HETATM    3  C   UNL     1       2.183   9.782   0.000  1.00  0.00     0.129 A 
HETATM    4  C   UNL     1      -0.415   9.782   0.000  1.00  0.00    -0.001 A 
HETATM    5  C   UNL     1      -1.714  10.532   0.000  1.00  0.00    -0.000 A 
HETATM    6  C   UNL     1      -3.013   9.782   0.000  1.00  0.00     0.029 A 
HETATM    7  C   UNL     1       2.183   8.282   0.000  1.00  0.00    -0.016 A 
HETATM    8  C   UNL     1      -0.415   8.282   0.000  1.00  0.00    -0.033 A 
HETATM    9  C   UNL     1      -3.013   8.282   0.000  1.00  0.00     0.019 A 
HETATM   10  C   UNL     1       0.884   7.532   0.000  1.00  0.00     0.046 A 
HETATM   11  C   UNL     1      -1.714   7.532   0.000  1.00  0.00     0.094 A 
HETATM   12  C   UNL     1      -1.714  12.032   0.000  1.00  0.00     0.134 A 
HETATM   13  O   UNL     1      -3.013  12.782   0.000  1.00  0.00    -0.193 OA
HETATM   14  C   UNL     1      -0.415  12.782   0.000  1.00  0.00     0.196 A 
HETATM   15  C   UNL     1      -0.749   6.383   0.000  1.00  0.00     0.015 C 
HETATM   16  O   UNL     1      -0.080  11.681   0.000  1.00  0.00    -0.342 OA
HETATM   17  C   UNL     1       1.849  11.681   0.000  1.00  0.00     0.041 C 
HETATM   18  C   UNL     1       3.483   7.532   0.000  1.00  0.00     0.029 C 
ENDROOT
BRANCH  11  19
HETATM   19  C   UNL     1      -2.678   6.383   0.000  1.00  0.00     0.188 C 
HETATM   20  O   UNL     1      -4.155   6.643   0.000  1.00  0.00    -0.647 OA
HETATM   21  O   UNL     1      -2.165   4.973   0.000  1.00  0.00    -0.647 OA
ENDBRANCH  11  19
TORSDOF 1
