REMARK  4 active torsions:
REMARK  status: ('A' for Active; 'I' for Inactive)
REMARK    1  A    between atoms: C_5  and  C_17 
REMARK    2  A    between atoms: C_8  and  C_14 
REMARK    3  A    between atoms: C_14  and  C_16 
REMARK    4  A    between atoms: C_16  and  C_17 
ROOT
HETATM    1  C   UNL     1       4.647   3.750   0.000  1.00  0.00     0.106 C 
HETATM    2  O   UNL     1       4.647   5.250   0.000  1.00  0.00    -0.195 OA
ENDROOT
BRANCH   1   3
HETATM    3  C   UNL     1       3.348   3.000   0.000  1.00  0.00     0.020 A 
HETATM    4  C   UNL     1       2.049   3.750   0.000  1.00  0.00     0.030 A 
HETATM    5  C   UNL     1       0.750   3.000   0.000  1.00  0.00     0.005 A 
HETATM    6  C   UNL     1       0.750   1.500   0.000  1.00  0.00     0.007 A 
HETATM    7  C   UNL     1       2.049   0.750   0.000  1.00  0.00     0.054 A 
HETATM    8  C   UNL     1       3.348   1.500   0.000  1.00  0.00     0.106 A 
HETATM    9  O   UNL     1       4.647   0.750   0.000  1.00  0.00    -0.195 OA
ENDBRANCH   1   3
BRANCH   1  10
HETATM   10  C   UNL     1       5.946   3.000   0.000  1.00  0.00     0.054 C 
BRANCH  10  11
HETATM   11  C   UNL     1       7.245   3.750   0.000  1.00  0.00     0.009 C 
BRANCH  11  12
HETATM   12  C   UNL     1       8.544   3.000   0.000  1.00  0.00     0.024 A 
HETATM   13  C   UNL     1       8.544   1.500   0.000  1.00  0.00     0.004 A 
HETATM   14  C   UNL     1       9.843   0.750   0.000  1.00  0.00     0.026 A 
HETATM   15  C   UNL     1      11.142   1.500   0.000  1.00  0.00     0.120 A 
HETATM   16  N   UNL     1      11.142   3.000   0.000  1.00  0.00    -0.296 NA
HETATM   17  C   UNL     1       9.843   3.750   0.000  1.00  0.00     0.120 A 
ENDBRANCH  11  12
ENDBRANCH  10  11
ENDBRANCH   1  10
TORSDOF 4
