REMARK  3 active torsions:
REMARK  status: ('A' for Active; 'I' for Inactive)
REMARK    1  A    between atoms: C_5  and  N_15 
REMARK    2  A    between atoms: C_6  and  O_16 
REMARK    3  A    between atoms: C_11  and  N_15 
ROOT
HETATM    1  N   UNL     1       2.324   5.524   0.000  1.00  0.00    -0.239 NA
ENDROOT
BRANCH   1   2
HETATM    2  C   UNL     1       2.324   7.024   0.000  1.00  0.00     0.038 A 
HETATM    3  C   UNL     1       1.024   7.774   0.000  1.00  0.00     0.044 A 
HETATM    4  C   UNL     1       1.024   9.274   0.000  1.00  0.00     0.036 A 
HETATM    5  C   UNL     1       2.324  10.024   0.000  1.00  0.00     0.116 A 
HETATM    6  C   UNL     1       3.623   9.274   0.000  1.00  0.00     0.036 A 
HETATM    7  C   UNL     1       3.623   7.774   0.000  1.00  0.00     0.044 A 
BRANCH   5   8
HETATM    8  O   UNL     1       2.324  11.524   0.000  1.00  0.00    -0.354 OA
HETATM    9  C   UNL     1       1.024  12.274   0.000  1.00  0.00     0.174 C 
ENDBRANCH   5   8
ENDBRANCH   1   2
BRANCH   1  10
HETATM   10  C   UNL     1       1.024   4.774   0.000  1.00  0.00     0.147 A 
HETATM   11  N   UNL     1       1.024   3.275   0.000  1.00  0.00    -0.199 NA
HETATM   12  C   UNL     1      -0.275   2.525   0.000  1.00  0.00     0.238 A 
HETATM   13  N   UNL     1      -1.574   3.275   0.000  1.00  0.00    -0.223 NA
HETATM   14  N   UNL     1      -0.275   1.024   0.000  1.00  0.00    -0.060 NA
HETATM   15  C   UNL     1      -1.574   4.774   0.000  1.00  0.00     0.048 A 
HETATM   16  C   UNL     1      -0.275   5.524   0.000  1.00  0.00     0.107 A 
HETATM   17  C   UNL     1      -2.873   5.524   0.000  1.00  0.00     0.048 C 
ENDBRANCH   1  10
TORSDOF 3
