REMARK  2 active torsions:
REMARK  status: ('A' for Active; 'I' for Inactive)
REMARK    1  A    between atoms: C_7  and  AS_12 
REMARK    2  A    between atoms: C_8  and  AS_12 
ROOT
HETATM    1  O   UNL     1      -4.558  -0.750   0.000  1.00  0.00     0.000 OA
HETATM    2 AS   UNL     1      -4.558  -2.250   0.000  1.00  0.00     0.000 As
HETATM    3  O   UNL     1      -4.558  -3.750   0.000  1.00  0.00     0.000 OA
ENDROOT
BRANCH   2   4
HETATM    4  C   UNL     1      -3.058  -2.250   0.000  1.00  0.00     0.005 A 
HETATM    5  S   UNL     1      -2.177  -1.036   0.000  1.00  0.00    -0.118 SA
HETATM    6  C   UNL     1      -0.750  -1.500   0.000  1.00  0.00     0.062 A 
HETATM    7  C   UNL     1      -0.750  -3.000   0.000  1.00  0.00     0.017 A 
HETATM    8  C   UNL     1      -2.177  -3.463   0.000  1.00  0.00     0.034 A 
ENDBRANCH   2   4
BRANCH   2   9
HETATM    9  C   UNL     1      -6.058  -2.250   0.000  1.00  0.00     0.005 A 
HETATM   10  S   UNL     1      -6.940  -1.036   0.000  1.00  0.00    -0.118 SA
HETATM   11  C   UNL     1      -8.367  -1.500   0.000  1.00  0.00     0.062 A 
HETATM   12  C   UNL     1      -8.367  -3.000   0.000  1.00  0.00     0.017 A 
HETATM   13  C   UNL     1      -6.940  -3.463   0.000  1.00  0.00     0.034 A 
ENDBRANCH   2   9
TORSDOF 2
