REMARK  4 active torsions:
REMARK  status: ('A' for Active; 'I' for Inactive)
REMARK    1  A    between atoms: C_3  and  AS_18 
REMARK    2  A    between atoms: C_4  and  N_20 
REMARK    3  A    between atoms: C_9  and  AS_18 
REMARK    4  A    between atoms: C_10  and  N_14 
ROOT
HETATM    1  O   UNL     1      -4.272  -6.101   0.000  1.00  0.00     0.000 OA
HETATM    2 AS   UNL     1      -3.522  -7.399   0.000  1.00  0.00     0.000 As
HETATM    3  O   UNL     1      -2.772  -8.699   0.000  1.00  0.00     0.000 OA
ENDROOT
BRANCH   2   4
HETATM    4  C   UNL     1      -2.223  -6.649   0.000  1.00  0.00    -0.045 A 
HETATM    5  C   UNL     1      -2.223  -5.149   0.000  1.00  0.00     0.073 A 
HETATM    6  C   UNL     1      -0.924  -4.399   0.000  1.00  0.00     0.129 A 
HETATM    7  C   UNL     1       0.375  -5.149   0.000  1.00  0.00     0.127 A 
HETATM    8  C   UNL     1       0.375  -6.649   0.000  1.00  0.00     0.060 A 
HETATM    9  O   UNL     1       1.674  -4.399   0.000  1.00  0.00    -0.193 OA
HETATM   10  C   UNL     1      -0.924  -7.399   0.000  1.00  0.00     0.029 A 
BRANCH   6  11
HETATM   11  N   UNL     1      -0.924  -2.900   0.000  1.00  0.00    -0.116 N 
HETATM   12  O   UNL     1       0.375  -2.150   0.000  1.00  0.00    -0.532 OA
HETATM   13  O   UNL     1      -2.223  -2.150   0.000  1.00  0.00    -0.532 OA
ENDBRANCH   6  11
ENDBRANCH   2   4
BRANCH   2  14
HETATM   14  C   UNL     1      -4.821  -8.149   0.000  1.00  0.00    -0.045 A 
HETATM   15  C   UNL     1      -6.120  -7.399   0.000  1.00  0.00     0.073 A 
HETATM   16  C   UNL     1      -7.419  -8.149   0.000  1.00  0.00     0.129 A 
HETATM   17  C   UNL     1      -7.419  -9.649   0.000  1.00  0.00     0.127 A 
HETATM   18  C   UNL     1      -6.120 -10.399   0.000  1.00  0.00     0.060 A 
HETATM   19  O   UNL     1      -8.718 -10.399   0.000  1.00  0.00    -0.193 OA
HETATM   20  C   UNL     1      -4.821  -9.649   0.000  1.00  0.00     0.029 A 
BRANCH  16  21
HETATM   21  N   UNL     1      -8.718  -7.399   0.000  1.00  0.00    -0.116 N 
HETATM   22  O   UNL     1     -10.017  -8.149   0.000  1.00  0.00    -0.532 OA
HETATM   23  O   UNL     1      -8.718  -5.899   0.000  1.00  0.00    -0.532 OA
ENDBRANCH  16  21
ENDBRANCH   2  14
TORSDOF 4
