REMARK  2 active torsions:
REMARK  status: ('A' for Active; 'I' for Inactive)
REMARK    1  A    between atoms: N_4  and  C_6 
REMARK    2  A    between atoms: C_10  and  S_12 
ROOT
HETATM    1  N   UNL     1      -2.049   5.049   0.000  1.00  0.00    -0.225 NA
HETATM    2 BR   UNL     1      -0.750   8.799   0.000  1.00  0.00    -0.045 Br
HETATM    3  N   UNL     1       0.549   5.049   0.000  1.00  0.00    -0.204 NA
HETATM    4  C   UNL     1      -0.750   7.299   0.000  1.00  0.00     0.082 A 
HETATM    5  C   UNL     1       0.549   6.549   0.000  1.00  0.00     0.150 A 
HETATM    6  C   UNL     1      -2.049   6.549   0.000  1.00  0.00     0.071 A 
HETATM    7  C   UNL     1      -0.750   4.299   0.000  1.00  0.00     0.191 A 
HETATM    8  C   UNL     1      -3.348   7.299   0.000  1.00  0.00     0.053 C 
ENDROOT
BRANCH   5   9
HETATM    9  N   UNL     1       1.848   7.299   0.000  1.00  0.00    -0.329 N 
HETATM   10  C   UNL     1       2.598   8.598   0.000  1.00  0.00     0.127 A 
HETATM   11  C   UNL     1       3.348   7.299   0.000  1.00  0.00     0.127 A 
ENDBRANCH   5   9
BRANCH   7  12
HETATM   12  S   UNL     1      -0.750   2.799   0.000  1.00  0.00    -0.075 SA
HETATM   13  C   UNL     1      -2.049   2.049   0.000  1.00  0.00     0.077 C 
ENDBRANCH   7  12
TORSDOF 2
