REMARK  1 active torsions:
REMARK  status: ('A' for Active; 'I' for Inactive)
REMARK    1  A    between atoms: C_2  and  S_11 
ROOT
HETATM    1  C   UNL     1      -6.607  -0.750   0.000  1.00  0.00     0.051 A 
HETATM    2  C   UNL     1      -3.000  -2.250   0.000  1.00  0.00     0.198 A 
HETATM    3  C   UNL     1      -5.308  -1.500   0.000  1.00  0.00     0.058 A 
HETATM    4  C   UNL     1      -7.906  -1.500   0.000  1.00  0.00     0.040 A 
HETATM    5  C   UNL     1      -5.308  -3.000   0.000  1.00  0.00     0.024 A 
HETATM    6  C   UNL     1      -7.906  -3.000   0.000  1.00  0.00     0.019 A 
HETATM    7  C   UNL     1      -6.607  -3.750   0.000  1.00  0.00     0.067 A 
HETATM    8 CL   UNL     1      -9.205  -3.750   0.000  1.00  0.00    -0.091 Cl
HETATM    9  S   UNL     1      -3.882  -3.463   0.000  1.00  0.00    -0.082 SA
HETATM   10  N   UNL     1      -3.882  -1.036   0.000  1.00  0.00    -0.255 NA
ENDROOT
BRANCH   2  11
HETATM   11  S   UNL     1      -1.500  -2.250   0.000  1.00  0.00    -0.134 SA
HETATM   12  H   UNL     1      -0.750  -0.951   0.000  1.00  0.00     0.105 HD
ENDBRANCH   2  11
TORSDOF 1
