REMARK  0 active torsions:
REMARK  status: ('A' for Active; 'I' for Inactive)
ROOT
HETATM    1  S   UNL     1       3.526   0.750   0.000  1.00  0.00    -0.106 SA
HETATM    2  C   UNL     1       3.526   3.750   0.000  1.00  0.00     0.246 A 
HETATM    3  C   UNL     1       4.825   1.500   0.000  1.00  0.00     0.182 A 
HETATM    4  C   UNL     1       2.227   1.500   0.000  1.00  0.00     0.182 A 
HETATM    5  S   UNL     1       2.227   3.000   0.000  1.00  0.00     0.196 S 
HETATM    6  O   UNL     1       1.714   4.410   0.000  1.00  0.00    -0.224 OA
HETATM    7  O   UNL     1       0.750   2.740   0.000  1.00  0.00    -0.224 OA
HETATM    8  S   UNL     1       4.825   3.000   0.000  1.00  0.00     0.196 S 
HETATM    9  O   UNL     1       5.338   4.410   0.000  1.00  0.00    -0.224 OA
HETATM   10  O   UNL     1       6.303   2.740   0.000  1.00  0.00    -0.224 OA
ENDROOT
TORSDOF 0
