REMARK  2 active torsions:
REMARK  status: ('A' for Active; 'I' for Inactive)
REMARK    1  A    between atoms: C_9  and  S_13 
REMARK    2  A    between atoms: S_13  and  C_14 
ROOT
HETATM    1  N   UNL     1      -1.232   8.365   0.000  1.00  0.00    -0.235 NA
HETATM    2  N   UNL     1       1.366   8.365   0.000  1.00  0.00    -0.196 NA
HETATM    3  N   UNL     1       2.665   6.115   0.000  1.00  0.00    -0.208 NA
HETATM    4  C   UNL     1      -2.531   7.615   0.000  1.00  0.00     0.043 A 
HETATM    5  C   UNL     1      -2.531   6.115   0.000  1.00  0.00     0.064 A 
HETATM    6  C   UNL     1      -1.232   5.365   0.000  1.00  0.00    -0.033 A 
HETATM    7  C   UNL     1       0.067   7.615   0.000  1.00  0.00     0.166 A 
HETATM    8  C   UNL     1       0.067   6.115   0.000  1.00  0.00     0.052 A 
HETATM    9  C   UNL     1       1.366   5.365   0.000  1.00  0.00     0.112 A 
HETATM   10  C   UNL     1       2.665   7.615   0.000  1.00  0.00     0.239 A 
HETATM   11  C   UNL     1      -3.830   8.365   0.000  1.00  0.00     0.048 C 
HETATM   12  C   UNL     1      -1.232   3.865   0.000  1.00  0.00     0.027 C 
HETATM   13  N   UNL     1       3.964   8.365   0.000  1.00  0.00    -0.060 NA
ENDROOT
BRANCH   9  14
HETATM   14  S   UNL     1       1.366   3.865   0.000  1.00  0.00    -0.096 SA
BRANCH  14  15
HETATM   15  C   UNL     1       2.665   3.115   0.000  1.00  0.00     0.053 C 
HETATM   16  C   UNL     1       2.665   1.615   0.000  1.00  0.00     0.012 C 
HETATM   17  C   UNL     1       3.964   3.865   0.000  1.00  0.00     0.012 C 
ENDBRANCH  14  15
ENDBRANCH   9  14
TORSDOF 2
