REMARK  2 active torsions:
REMARK  status: ('A' for Active; 'I' for Inactive)
REMARK    1  A    between atoms: C_5  and  O_7 
REMARK    2  A    between atoms: C_12  and  C_13 
ROOT
HETATM    1  C   UNL     1      -7.245  -0.750   0.000  1.00  0.00     0.048 A 
HETATM    2  C   UNL     1      -8.544  -1.500   0.000  1.00  0.00     0.036 A 
HETATM    3  C   UNL     1      -5.946  -1.500   0.000  1.00  0.00     0.057 A 
HETATM    4  C   UNL     1      -5.946  -3.000   0.000  1.00  0.00    -0.009 A 
HETATM    5  C   UNL     1      -8.544  -3.000   0.000  1.00  0.00     0.120 A 
HETATM    6  C   UNL     1      -7.245  -3.750   0.000  1.00  0.00     0.057 A 
HETATM    7  N   UNL     1      -4.647  -0.750   0.000  1.00  0.00    -0.225 NA
HETATM    8  C   UNL     1      -3.348  -1.500   0.000  1.00  0.00     0.214 A 
HETATM    9  O   UNL     1      -2.049  -0.750   0.000  1.00  0.00    -0.169 OA
HETATM   10  C   UNL     1      -3.348  -3.000   0.000  1.00  0.00     0.070 A 
HETATM   11  O   UNL     1      -4.647  -3.750   0.000  1.00  0.00     0.000 OA
HETATM   12  C   UNL     1      -4.647  -5.250   0.000  1.00  0.00     0.000 C 
ENDROOT
BRANCH  10  13
HETATM   13  C   UNL     1      -2.049  -3.750   0.000  1.00  0.00     0.113 C 
HETATM   14  O   UNL     1      -0.750  -3.000   0.000  1.00  0.00    -0.195 OA
HETATM   15  C   UNL     1      -2.049  -5.250   0.000  1.00  0.00     0.061 C 
ENDBRANCH  10  13
BRANCH   5  16
HETATM   16  O   UNL     1      -9.843  -3.750   0.000  1.00  0.00    -0.354 OA
HETATM   17  C   UNL     1     -11.142  -3.000   0.000  1.00  0.00     0.174 C 
ENDBRANCH   5  16
TORSDOF 2
