REMARK  3 active torsions:
REMARK  status: ('A' for Active; 'I' for Inactive)
REMARK    1  A    between atoms: C_2  and  C_18 
REMARK    2  A    between atoms: C_12  and  N_20 
REMARK    3  A    between atoms: C_16  and  N_21 
REMARK       I    between atoms: C_18  and  N_20 
ROOT
HETATM    1  C   UNL     1      -8.544  -3.000   0.000  1.00  0.00     0.210 C 
HETATM    2  O   UNL     1      -8.544  -1.500   0.000  1.00  0.00    -0.170 OA
HETATM    3  N   UNL     1      -7.245  -3.750   0.000  1.00  0.00    -0.229 NA
ENDROOT
BRANCH   1   4
HETATM    4  C   UNL     1      -9.843  -3.750   0.000  1.00  0.00     0.047 A 
HETATM    5  C   UNL     1     -11.142  -3.000   0.000  1.00  0.00     0.126 A 
HETATM    6  C   UNL     1     -12.441  -3.750   0.000  1.00  0.00    -0.005 A 
HETATM    7  O   UNL     1     -11.142  -1.500   0.000  1.00  0.00    -0.191 OA
HETATM    8  C   UNL     1     -12.441  -5.250   0.000  1.00  0.00    -0.046 A 
HETATM    9  C   UNL     1     -13.740  -3.000   0.000  1.00  0.00     0.028 A 
HETATM   10  C   UNL     1     -11.142  -6.000   0.000  1.00  0.00     0.027 A 
HETATM   11  C   UNL     1     -13.740  -6.000   0.000  1.00  0.00     0.022 A 
HETATM   12  C   UNL     1      -9.843  -5.250   0.000  1.00  0.00     0.036 A 
HETATM   13  C   UNL     1     -15.039  -5.250   0.000  1.00  0.00     0.005 A 
HETATM   14  C   UNL     1     -15.039  -3.750   0.000  1.00  0.00     0.005 A 
ENDBRANCH   1   4
BRANCH   3  15
HETATM   15  C   UNL     1      -5.946  -3.000   0.000  1.00  0.00     0.045 A 
HETATM   16  C   UNL     1      -5.946  -1.500   0.000  1.00  0.00     0.042 A 
HETATM   17  C   UNL     1      -4.647  -0.750   0.000  1.00  0.00     0.012 A 
HETATM   18  C   UNL     1      -3.348  -1.500   0.000  1.00  0.00     0.047 A 
HETATM   19  C   UNL     1      -3.348  -3.000   0.000  1.00  0.00     0.088 A 
HETATM   20  C   UNL     1      -4.647  -3.750   0.000  1.00  0.00     0.087 A 
BRANCH  19  21
HETATM   21  N   UNL     1      -2.049  -3.750   0.000  1.00  0.00    -0.122 N 
HETATM   22  O   UNL     1      -2.049  -5.250   0.000  1.00  0.00    -0.532 OA
HETATM   23  O   UNL     1      -0.750  -3.000   0.000  1.00  0.00    -0.532 OA
ENDBRANCH  19  21
ENDBRANCH   3  15
TORSDOF 3
