REMARK  2 active torsions:
REMARK  status: ('A' for Active; 'I' for Inactive)
REMARK    1  A    between atoms: C_7  and  C_23 
REMARK    2  A    between atoms: C_18  and  N_25 
REMARK       I    between atoms: C_23  and  N_25 
ROOT
HETATM    1  H   UNL     1       3.738   5.489   0.000  1.00  0.00     0.165 HD
HETATM    2  N   UNL     1       4.202   4.063   0.000  1.00  0.00    -0.360 N 
HETATM    3  C   UNL     1       6.927   4.349   0.000  1.00  0.00     0.097 A 
HETATM    4  C   UNL     1       5.628   3.599   0.000  1.00  0.00     0.036 A 
HETATM    5  C   UNL     1       8.226   3.599   0.000  1.00  0.00     0.114 A 
HETATM    6  C   UNL     1       8.226   2.099   0.000  1.00  0.00     0.048 A 
HETATM    7  C   UNL     1       5.628   2.099   0.000  1.00  0.00    -0.009 A 
HETATM    8  C   UNL     1       6.927   1.349   0.000  1.00  0.00     0.059 A 
HETATM    9  C   UNL     1       4.202   1.636   0.000  1.00  0.00    -0.013 A 
HETATM   10  C   UNL     1       1.828   2.693   0.000  1.00  0.00     0.043 A 
HETATM   11  C   UNL     1       3.320   2.849   0.000  1.00  0.00     0.029 A 
HETATM   12  C   UNL     1       1.218   1.322   0.000  1.00  0.00     0.007 A 
HETATM   13  C   UNL     1       2.100   0.109   0.000  1.00  0.00     0.005 A 
HETATM   14  C   UNL     1       3.592   0.266   0.000  1.00  0.00     0.027 A 
HETATM   15  O   UNL     1       9.525   4.349   0.000  1.00  0.00    -0.195 OA
ENDROOT
BRANCH   6  16
HETATM   16  C   UNL     1       9.525   1.349   0.000  1.00  0.00     0.210 C 
HETATM   17  O   UNL     1      10.825   2.099   0.000  1.00  0.00    -0.170 OA
HETATM   18  N   UNL     1       9.525  -0.151   0.000  1.00  0.00    -0.229 NA
BRANCH  18  19
HETATM   19  C   UNL     1      10.825  -0.901   0.000  1.00  0.00     0.040 A 
HETATM   20  C   UNL     1      12.124  -0.151   0.000  1.00  0.00     0.047 A 
HETATM   21  C   UNL     1      13.423  -0.901   0.000  1.00  0.00     0.040 A 
HETATM   22  C   UNL     1      13.423  -2.401   0.000  1.00  0.00     0.014 A 
HETATM   23 CL   UNL     1      14.722  -3.151   0.000  1.00  0.00    -0.092 Cl
HETATM   24  C   UNL     1      12.124  -3.151   0.000  1.00  0.00     0.040 A 
HETATM   25  C   UNL     1      10.825  -2.401   0.000  1.00  0.00     0.047 A 
ENDBRANCH  18  19
ENDBRANCH   6  16
TORSDOF 2
