REMARK  3 active torsions:
REMARK  status: ('A' for Active; 'I' for Inactive)
REMARK    1  A    between atoms: C_5  and  C_26 
REMARK    2  A    between atoms: C_21  and  N_28 
REMARK    3  A    between atoms: C_22  and  O_29 
REMARK       I    between atoms: C_26  and  N_28 
ROOT
HETATM    1  H   UNL     1     -12.557  -8.134   0.000  1.00  0.00     0.166 HD
HETATM    2  N   UNL     1     -12.093  -9.561   0.000  1.00  0.00    -0.357 N 
HETATM    3  C   UNL     1      -8.069  -7.024   0.000  1.00  0.00     0.113 A 
HETATM    4  C   UNL     1      -9.368  -7.774   0.000  1.00  0.00     0.081 A 
HETATM    5  C   UNL     1      -6.770  -7.774   0.000  1.00  0.00     0.047 A 
HETATM    6  C   UNL     1      -6.770  -9.274   0.000  1.00  0.00     0.053 A 
HETATM    7  C   UNL     1      -9.368  -9.274   0.000  1.00  0.00    -0.008 A 
HETATM    8  C   UNL     1      -8.069 -10.024   0.000  1.00  0.00    -0.042 A 
HETATM    9  C   UNL     1     -10.667 -10.024   0.000  1.00  0.00     0.048 A 
HETATM   10  C   UNL     1      -8.069 -11.524   0.000  1.00  0.00     0.027 A 
HETATM   11  C   UNL     1     -10.667 -11.524   0.000  1.00  0.00    -0.009 A 
HETATM   12  C   UNL     1      -9.368 -12.274   0.000  1.00  0.00     0.032 A 
HETATM   13  C   UNL     1     -12.093 -11.988   0.000  1.00  0.00    -0.013 A 
HETATM   14  C   UNL     1     -14.467 -10.931   0.000  1.00  0.00     0.043 A 
HETATM   15  C   UNL     1     -15.077 -12.302   0.000  1.00  0.00     0.007 A 
HETATM   16  C   UNL     1     -12.975 -10.774   0.000  1.00  0.00     0.029 A 
HETATM   17  C   UNL     1     -14.195 -13.515   0.000  1.00  0.00     0.005 A 
HETATM   18  C   UNL     1     -12.704 -13.358   0.000  1.00  0.00     0.027 A 
HETATM   19  O   UNL     1      -8.069  -5.524   0.000  1.00  0.00    -0.195 OA
ENDROOT
BRANCH   5  20
HETATM   20  C   UNL     1      -5.471  -7.024   0.000  1.00  0.00     0.210 C 
HETATM   21  O   UNL     1      -5.471  -5.524   0.000  1.00  0.00    -0.170 OA
HETATM   22  N   UNL     1      -4.172  -7.774   0.000  1.00  0.00    -0.229 NA
BRANCH  22  23
HETATM   23  C   UNL     1      -2.873  -7.024   0.000  1.00  0.00     0.039 A 
HETATM   24  C   UNL     1      -2.873  -5.524   0.000  1.00  0.00     0.044 A 
HETATM   25  C   UNL     1      -1.574  -4.774   0.000  1.00  0.00     0.036 A 
HETATM   26  C   UNL     1      -0.275  -5.524   0.000  1.00  0.00     0.116 A 
HETATM   27  C   UNL     1      -0.275  -7.024   0.000  1.00  0.00     0.036 A 
HETATM   28  C   UNL     1      -1.574  -7.774   0.000  1.00  0.00     0.044 A 
BRANCH  26  29
HETATM   29  O   UNL     1       1.024  -4.774   0.000  1.00  0.00    -0.354 OA
HETATM   30  C   UNL     1       1.024  -3.275   0.000  1.00  0.00     0.174 C 
ENDBRANCH  26  29
ENDBRANCH  22  23
ENDBRANCH   5  20
TORSDOF 3
