REMARK  4 active torsions:
REMARK  status: ('A' for Active; 'I' for Inactive)
REMARK    1  A    between atoms: C_3  and  O_24 
REMARK    2  A    between atoms: C_4  and  N_21 
REMARK    3  A    between atoms: C_6  and  O_22 
REMARK    4  A    between atoms: C_10  and  C_19 
REMARK       I    between atoms: C_19  and  N_21 
ROOT
HETATM    1  C   UNL     1      -8.169   0.851   0.000  1.00  0.00     0.210 C 
HETATM    2  O   UNL     1      -6.870   1.601   0.000  1.00  0.00    -0.169 OA
HETATM    3  N   UNL     1      -8.169  -0.649   0.000  1.00  0.00    -0.223 NA
ENDROOT
BRANCH   1   4
HETATM    4  C   UNL     1      -9.468   1.601   0.000  1.00  0.00     0.047 A 
HETATM    5  C   UNL     1      -9.468   3.100   0.000  1.00  0.00     0.053 A 
HETATM    6  C   UNL     1     -10.767   3.850   0.000  1.00  0.00    -0.047 A 
HETATM    7  C   UNL     1     -12.066   3.100   0.000  1.00  0.00    -0.045 A 
HETATM    8  C   UNL     1     -10.767   5.351   0.000  1.00  0.00     0.022 A 
HETATM    9  C   UNL     1     -13.365   3.850   0.000  1.00  0.00     0.022 A 
HETATM   10  C   UNL     1     -12.066   1.601   0.000  1.00  0.00     0.075 A 
HETATM   11  C   UNL     1     -13.365   5.351   0.000  1.00  0.00     0.005 A 
HETATM   12  C   UNL     1     -12.066   6.101   0.000  1.00  0.00     0.005 A 
HETATM   13  C   UNL     1     -10.767   0.851   0.000  1.00  0.00     0.112 A 
HETATM   14  O   UNL     1     -10.767  -0.649   0.000  1.00  0.00    -0.195 OA
ENDBRANCH   1   4
BRANCH   3  15
HETATM   15  C   UNL     1      -6.870  -1.399   0.000  1.00  0.00     0.086 A 
HETATM   16  C   UNL     1      -5.571  -0.649   0.000  1.00  0.00     0.099 A 
HETATM   17  C   UNL     1      -4.272  -1.399   0.000  1.00  0.00     0.085 A 
HETATM   18  C   UNL     1      -4.272  -2.900   0.000  1.00  0.00     0.060 A 
HETATM   19 CL   UNL     1      -2.973  -3.650   0.000  1.00  0.00    -0.085 Cl
HETATM   20  C   UNL     1      -5.571  -3.650   0.000  1.00  0.00     0.092 A 
HETATM   21  C   UNL     1      -6.870  -2.900   0.000  1.00  0.00     0.091 A 
BRANCH  17  22
HETATM   22  O   UNL     1      -2.973  -0.649   0.000  1.00  0.00    -0.331 OA
HETATM   23  C   UNL     1      -1.674  -1.399   0.000  1.00  0.00     0.181 C 
ENDBRANCH  17  22
BRANCH  21  24
HETATM   24  O   UNL     1      -8.169  -3.650   0.000  1.00  0.00    -0.331 OA
HETATM   25  C   UNL     1      -8.169  -5.149   0.000  1.00  0.00     0.181 C 
ENDBRANCH  21  24
ENDBRANCH   3  15
TORSDOF 4
