REMARK  4 active torsions:
REMARK  status: ('A' for Active; 'I' for Inactive)
REMARK    1  A    between atoms: C_3  and  N_20 
REMARK    2  A    between atoms: C_4  and  O_21 
REMARK    3  A    between atoms: C_8  and  C_18 
REMARK       I    between atoms: C_18  and  N_20 
REMARK    4  A    between atoms: O_21  and  C_22 
ROOT
HETATM    1  C   UNL     1      -6.770  -7.774   0.000  1.00  0.00     0.210 C 
HETATM    2  O   UNL     1      -6.770  -6.274   0.000  1.00  0.00    -0.170 OA
HETATM    3  N   UNL     1      -5.471  -8.524   0.000  1.00  0.00    -0.229 NA
ENDROOT
BRANCH   1   4
HETATM    4  C   UNL     1      -8.069  -8.524   0.000  1.00  0.00     0.047 A 
HETATM    5  C   UNL     1      -9.368  -7.774   0.000  1.00  0.00     0.053 A 
HETATM    6  C   UNL     1     -10.667  -8.524   0.000  1.00  0.00    -0.047 A 
HETATM    7  C   UNL     1     -10.667 -10.024   0.000  1.00  0.00    -0.045 A 
HETATM    8  C   UNL     1     -11.966  -7.774   0.000  1.00  0.00     0.022 A 
HETATM    9  C   UNL     1     -11.966 -10.774   0.000  1.00  0.00     0.022 A 
HETATM   10  C   UNL     1      -9.368 -10.774   0.000  1.00  0.00     0.075 A 
HETATM   11  C   UNL     1     -13.265 -10.024   0.000  1.00  0.00     0.005 A 
HETATM   12  C   UNL     1     -13.265  -8.524   0.000  1.00  0.00     0.005 A 
HETATM   13  C   UNL     1      -8.069 -10.024   0.000  1.00  0.00     0.112 A 
HETATM   14  O   UNL     1      -6.770 -10.774   0.000  1.00  0.00    -0.195 OA
ENDBRANCH   1   4
BRANCH   3  15
HETATM   15  C   UNL     1      -4.172  -7.774   0.000  1.00  0.00     0.039 A 
HETATM   16  C   UNL     1      -4.172  -6.274   0.000  1.00  0.00     0.044 A 
HETATM   17  C   UNL     1      -2.873  -5.524   0.000  1.00  0.00     0.036 A 
HETATM   18  C   UNL     1      -1.574  -6.274   0.000  1.00  0.00     0.116 A 
HETATM   19  C   UNL     1      -1.574  -7.774   0.000  1.00  0.00     0.036 A 
HETATM   20  C   UNL     1      -2.873  -8.524   0.000  1.00  0.00     0.044 A 
BRANCH  18  21
HETATM   21  O   UNL     1      -0.275  -5.524   0.000  1.00  0.00    -0.357 OA
BRANCH  21  22
HETATM   22  C   UNL     1      -0.275  -4.024   0.000  1.00  0.00     0.142 C 
HETATM   23  C   UNL     1       1.024  -3.275   0.000  1.00  0.00     0.035 C 
ENDBRANCH  21  22
ENDBRANCH  18  21
ENDBRANCH   3  15
TORSDOF 4
