REMARK  2 active torsions:
REMARK  status: ('A' for Active; 'I' for Inactive)
REMARK    1  A    between atoms: C_3  and  N_14 
REMARK    2  A    between atoms: C_12  and  N_14 
ROOT
HETATM    1  C   UNL     1       5.571  -0.649   0.000  1.00  0.00     0.048 A 
HETATM    2  C   UNL     1       4.272  -1.399   0.000  1.00  0.00     0.082 A 
HETATM    3  C   UNL     1       5.571   0.851   0.000  1.00  0.00     0.007 A 
HETATM    4  C   UNL     1       2.973  -0.649   0.000  1.00  0.00     0.122 A 
HETATM    5  C   UNL     1       4.272   1.601   0.000  1.00  0.00     0.007 A 
HETATM    6  C   UNL     1       2.973   0.851   0.000  1.00  0.00     0.056 A 
HETATM    7  O   UNL     1       1.674  -1.399   0.000  1.00  0.00    -0.194 OA
ENDROOT
BRANCH   2   8
HETATM    8  N   UNL     1       4.272  -2.900   0.000  1.00  0.00    -0.234 NA
BRANCH   8   9
HETATM    9  C   UNL     1       5.571  -3.650   0.000  1.00  0.00     0.134 A 
HETATM   10  N   UNL     1       6.870  -2.900   0.000  1.00  0.00    -0.257 NA
HETATM   11  C   UNL     1       8.169  -3.650   0.000  1.00  0.00     0.127 A 
HETATM   12  C   UNL     1       8.169  -5.149   0.000  1.00  0.00     0.027 A 
HETATM   13  C   UNL     1       6.870  -5.899   0.000  1.00  0.00     0.010 A 
HETATM   14  C   UNL     1       5.571  -5.149   0.000  1.00  0.00     0.065 A 
ENDBRANCH   8   9
ENDBRANCH   2   8
TORSDOF 2
