REMARK  1 active torsions:
REMARK  status: ('A' for Active; 'I' for Inactive)
REMARK    1  A    between atoms: C_6  and  C_8 
ROOT
HETATM    1  H   UNL     1       3.160   3.974   0.000  1.00  0.00     0.197 HD
HETATM    2  N   UNL     1       3.771   2.604   0.000  1.00  0.00    -0.234 N 
HETATM    3  O   UNL     1       3.021   1.305   0.000  1.00  0.00    -0.220 OA
HETATM    4  O   UNL     1       6.353   3.296   0.000  1.00  0.00    -0.169 OA
HETATM    5  C   UNL     1       5.238   2.292   0.000  1.00  0.00     0.213 A 
HETATM    6  C   UNL     1       5.394   0.800   0.000  1.00  0.00     0.074 A 
HETATM    7  C   UNL     1       4.024   0.190   0.000  1.00  0.00     0.195 A 
HETATM    8  N   UNL     1       3.712  -1.277   0.000  1.00  0.00    -0.071 NA
ENDROOT
BRANCH   6   9
HETATM    9  C   UNL     1       6.694   0.050   0.000  1.00  0.00    -0.038 A 
HETATM   10  C   UNL     1       7.993   0.800   0.000  1.00  0.00     0.022 A 
HETATM   11  C   UNL     1       9.292   0.050   0.000  1.00  0.00     0.004 A 
HETATM   12  C   UNL     1       9.292  -1.450   0.000  1.00  0.00     0.001 A 
HETATM   13  C   UNL     1       7.993  -2.200   0.000  1.00  0.00     0.004 A 
HETATM   14  C   UNL     1       6.694  -1.450   0.000  1.00  0.00     0.022 A 
ENDBRANCH   6   9
TORSDOF 1
