REMARK  4 active torsions:
REMARK  status: ('A' for Active; 'I' for Inactive)
REMARK    1  A    between atoms: C_3  and  N_17 
REMARK    2  A    between atoms: C_9  and  N_14 
REMARK    3  A    between atoms: N_14  and  C_15 
REMARK    4  A    between atoms: C_15  and  N_17 
ROOT
HETATM    1  C   UNL     1       2.324   7.024   0.000  1.00  0.00     0.220 C 
HETATM    2  S   UNL     1       3.623   7.774   0.000  1.00  0.00    -0.037 SA
ENDROOT
BRANCH   1   3
HETATM    3  N   UNL     1       2.324   5.524   0.000  1.00  0.00    -0.226 NA
BRANCH   3   4
HETATM    4  C   UNL     1       1.024   4.774   0.000  1.00  0.00     0.039 A 
HETATM    5  C   UNL     1      -0.275   5.524   0.000  1.00  0.00     0.044 A 
HETATM    6  C   UNL     1      -1.574   4.774   0.000  1.00  0.00     0.045 A 
HETATM    7  C   UNL     1      -1.574   3.275   0.000  1.00  0.00     0.303 A 
HETATM    8  C   UNL     1      -0.275   2.525   0.000  1.00  0.00     0.045 A 
HETATM    9  N   UNL     1      -2.873   2.525   0.000  1.00  0.00     0.616 N 
HETATM   10  C   UNL     1       1.024   3.275   0.000  1.00  0.00     0.044 A 
ENDBRANCH   3   4
ENDBRANCH   1   3
BRANCH   1  11
HETATM   11  N   UNL     1       1.024   7.774   0.000  1.00  0.00    -0.226 NA
BRANCH  11  12
HETATM   12  C   UNL     1       1.024   9.274   0.000  1.00  0.00     0.039 A 
HETATM   13  C   UNL     1      -0.275  10.024   0.000  1.00  0.00     0.041 A 
HETATM   14  C   UNL     1      -0.275  11.524   0.000  1.00  0.00     0.006 A 
HETATM   15  C   UNL     1       1.024  12.274   0.000  1.00  0.00     0.001 A 
HETATM   16  C   UNL     1       2.324  11.524   0.000  1.00  0.00     0.006 A 
HETATM   17  C   UNL     1       2.324  10.024   0.000  1.00  0.00     0.041 A 
ENDBRANCH  11  12
ENDBRANCH   1  11
TORSDOF 4
