REMARK  2 active torsions:
REMARK  status: ('A' for Active; 'I' for Inactive)
REMARK    1  A    between atoms: S_2  and  C_10 
REMARK    2  A    between atoms: S_2  and  C_12 
ROOT
HETATM    1  N   UNL     1      -6.870   3.100   0.000  1.00  0.00    -0.249 NA
HETATM    2  N   UNL     1      -5.571   0.851   0.000  1.00  0.00    -0.238 NA
HETATM    3  C   UNL     1      -9.468   3.100   0.000  1.00  0.00     0.045 A 
HETATM    4  C   UNL     1      -8.169   2.350   0.000  1.00  0.00     0.054 A 
HETATM    5  C   UNL     1     -10.767   2.350   0.000  1.00  0.00     0.007 A 
HETATM    6  C   UNL     1      -8.169   0.851   0.000  1.00  0.00     0.014 A 
HETATM    7  C   UNL     1     -10.767   0.851   0.000  1.00  0.00     0.005 A 
HETATM    8  C   UNL     1      -9.468   0.101   0.000  1.00  0.00     0.030 A 
HETATM    9  C   UNL     1      -6.870   0.101   0.000  1.00  0.00     0.101 A 
HETATM   10  C   UNL     1      -5.571   2.350   0.000  1.00  0.00     0.251 A 
ENDROOT
BRANCH   9  11
HETATM   11  S   UNL     1      -6.870  -1.399   0.000  1.00  0.00    -0.096 SA
BRANCH  11  12
HETATM   12  C   UNL     1      -5.571  -2.150   0.000  1.00  0.00     0.053 A 
HETATM   13  C   UNL     1      -4.272  -1.399   0.000  1.00  0.00     0.011 A 
HETATM   14  C   UNL     1      -2.973  -2.150   0.000  1.00  0.00     0.001 A 
HETATM   15  C   UNL     1      -2.973  -3.650   0.000  1.00  0.00     0.000 A 
HETATM   16  C   UNL     1      -4.272  -4.399   0.000  1.00  0.00     0.001 A 
HETATM   17  C   UNL     1      -5.571  -3.650   0.000  1.00  0.00     0.011 A 
ENDBRANCH  11  12
ENDBRANCH   9  11
TORSDOF 2
