REMARK  3 active torsions:
REMARK  status: ('A' for Active; 'I' for Inactive)
REMARK    1  A    between atoms: C_7  and  C_9 
REMARK    2  A    between atoms: C_15  and  O_18 
REMARK    3  A    between atoms: C_17  and  O_20 
ROOT
HETATM    1  O   UNL     1      -3.522 -10.399   0.000  1.00  0.00    -0.194 OA
HETATM    2  O   UNL     1      -3.522  -5.899   0.000  1.00  0.00    -0.316 OA
HETATM    3  C   UNL     1      -2.223  -6.649   0.000  1.00  0.00     0.078 A 
HETATM    4  C   UNL     1      -2.223  -8.149   0.000  1.00  0.00     0.105 A 
HETATM    5  C   UNL     1      -3.522  -8.899   0.000  1.00  0.00     0.118 A 
HETATM    6  C   UNL     1      -4.821  -8.149   0.000  1.00  0.00     0.059 A 
HETATM    7  C   UNL     1      -6.120  -5.899   0.000  1.00  0.00     0.082 A 
HETATM    8  C   UNL     1      -4.821  -6.649   0.000  1.00  0.00     0.083 A 
HETATM    9  C   UNL     1      -7.419  -6.649   0.000  1.00  0.00     0.128 A 
HETATM   10  C   UNL     1      -7.419  -8.149   0.000  1.00  0.00     0.081 A 
HETATM   11  C   UNL     1      -6.120  -8.899   0.000  1.00  0.00     0.077 A 
ENDROOT
BRANCH   3  12
HETATM   12  C   UNL     1      -0.924  -5.899   0.000  1.00  0.00    -0.001 A 
HETATM   13  C   UNL     1       0.375  -6.649   0.000  1.00  0.00     0.028 A 
HETATM   14  C   UNL     1       1.674  -5.899   0.000  1.00  0.00     0.030 A 
HETATM   15  C   UNL     1       1.674  -4.399   0.000  1.00  0.00     0.121 A 
HETATM   16  N   UNL     1       0.375  -3.650   0.000  1.00  0.00    -0.291 NA
HETATM   17  C   UNL     1      -0.924  -4.399   0.000  1.00  0.00     0.144 A 
ENDBRANCH   3  12
BRANCH  11  18
HETATM   18  O   UNL     1      -6.120 -10.399   0.000  1.00  0.00    -0.332 OA
HETATM   19  C   UNL     1      -7.419 -11.149   0.000  1.00  0.00     0.181 C 
ENDBRANCH  11  18
BRANCH   9  20
HETATM   20  O   UNL     1      -8.718  -5.899   0.000  1.00  0.00    -0.353 OA
HETATM   21  C   UNL     1     -10.017  -6.649   0.000  1.00  0.00     0.174 C 
ENDBRANCH   9  20
TORSDOF 3
