REMARK  6 active torsions:
REMARK  status: ('A' for Active; 'I' for Inactive)
REMARK    1  A    between atoms: C_1  and  O_15 
REMARK    2  A    between atoms: C_3  and  C_18 
REMARK    3  A    between atoms: C_5  and  O_13 
REMARK    4  A    between atoms: C_8  and  C_21 
REMARK    5  A    between atoms: C_18  and  C_20 
REMARK    6  A    between atoms: C_20  and  C_21 
ROOT
HETATM    1  C   UNL     1      -9.843  -3.000   0.000  1.00  0.00     0.077 A 
HETATM    2  C   UNL     1     -11.142  -3.750   0.000  1.00  0.00     0.081 A 
HETATM    3  C   UNL     1      -8.544  -3.750   0.000  1.00  0.00     0.061 A 
HETATM    4  C   UNL     1      -8.544  -5.250   0.000  1.00  0.00     0.114 A 
HETATM    5  C   UNL     1     -11.142  -5.250   0.000  1.00  0.00     0.128 A 
HETATM    6  C   UNL     1      -9.843  -6.000   0.000  1.00  0.00     0.084 A 
HETATM    7  O   UNL     1      -7.245  -6.000   0.000  1.00  0.00    -0.195 OA
ENDROOT
BRANCH   3   8
HETATM    8  C   UNL     1      -7.245  -3.000   0.000  1.00  0.00     0.112 C 
HETATM    9  O   UNL     1      -7.245  -1.500   0.000  1.00  0.00    -0.195 OA
BRANCH   8  10
HETATM   10  C   UNL     1      -5.946  -3.750   0.000  1.00  0.00     0.054 C 
BRANCH  10  11
HETATM   11  C   UNL     1      -4.647  -3.000   0.000  1.00  0.00     0.007 C 
BRANCH  11  12
HETATM   12  C   UNL     1      -3.348  -3.750   0.000  1.00  0.00     0.000 A 
HETATM   13  C   UNL     1      -2.049  -3.000   0.000  1.00  0.00     0.000 A 
HETATM   14  C   UNL     1      -0.750  -3.750   0.000  1.00  0.00     0.000 A 
HETATM   15  C   UNL     1      -0.750  -5.250   0.000  1.00  0.00     0.000 A 
HETATM   16  C   UNL     1      -2.049  -6.000   0.000  1.00  0.00     0.000 A 
HETATM   17  C   UNL     1      -3.348  -5.250   0.000  1.00  0.00     0.000 A 
ENDBRANCH  11  12
ENDBRANCH  10  11
ENDBRANCH   8  10
ENDBRANCH   3   8
BRANCH   1  18
HETATM   18  O   UNL     1      -9.843  -1.500   0.000  1.00  0.00    -0.332 OA
HETATM   19  C   UNL     1     -11.142  -0.750   0.000  1.00  0.00     0.181 C 
ENDBRANCH   1  18
BRANCH   5  20
HETATM   20  O   UNL     1     -12.441  -6.000   0.000  1.00  0.00    -0.353 OA
HETATM   21  C   UNL     1     -13.740  -5.250   0.000  1.00  0.00     0.174 C 
ENDBRANCH   5  20
TORSDOF 6
