REMARK  1 active torsions:
REMARK  status: ('A' for Active; 'I' for Inactive)
REMARK    1  A    between atoms: C_4  and  C_5 
ROOT
HETATM    1  C   UNL     1      -1.964  -2.799   0.000  1.00  0.00     0.453 A 
HETATM    2  C   UNL     1      -4.272  -2.049   0.000  1.00  0.00     0.119 A 
HETATM    3  N   UNL     1      -3.390  -0.836   0.000  1.00  0.00    -0.171 NA
HETATM    4  S   UNL     1      -3.390  -3.263   0.000  1.00  0.00    -0.037 SA
HETATM    5  N   UNL     1      -1.964  -1.299   0.000  1.00  0.00    -0.051 NA
HETATM    6  N   UNL     1      -0.750  -3.681   0.000  1.00  0.00     0.650 N 
ENDROOT
BRANCH   2   7
HETATM    7  C   UNL     1      -5.772  -2.049   0.000  1.00  0.00     0.004 A 
HETATM    8  C   UNL     1      -6.522  -0.750   0.000  1.00  0.00     0.028 A 
HETATM    9  C   UNL     1      -8.022  -0.750   0.000  1.00  0.00     0.030 A 
HETATM   10  C   UNL     1      -8.772  -2.049   0.000  1.00  0.00     0.121 A 
HETATM   11  N   UNL     1      -8.022  -3.348   0.000  1.00  0.00    -0.291 NA
HETATM   12  C   UNL     1      -6.522  -3.348   0.000  1.00  0.00     0.144 A 
ENDBRANCH   2   7
TORSDOF 1
