REMARK  1 active torsions:
REMARK  status: ('A' for Active; 'I' for Inactive)
REMARK    1  A    between atoms: C_20  and  C_26 
ROOT
HETATM    1  O   UNL     1     -12.412   4.800   0.000  1.00  0.00    -0.283 OA
HETATM    2  O   UNL     1      -9.814   4.800   0.000  1.00  0.00    -0.162 OA
HETATM    3  C   UNL     1     -15.010   4.800   0.000  1.00  0.00     0.022 A 
HETATM    4  C   UNL     1     -13.711   4.050   0.000  1.00  0.00     0.098 A 
HETATM    5  C   UNL     1     -16.309   4.050   0.000  1.00  0.00     0.107 A 
HETATM    6  C   UNL     1     -13.711   2.550   0.000  1.00  0.00     0.028 A 
HETATM    7  C   UNL     1     -16.309   2.550   0.000  1.00  0.00     0.059 A 
HETATM    8  C   UNL     1     -15.010   1.800   0.000  1.00  0.00     0.037 A 
HETATM    9  C   UNL     1     -12.412   1.800   0.000  1.00  0.00     0.151 A 
HETATM   10  C   UNL     1     -11.113   4.050   0.000  1.00  0.00     0.253 A 
HETATM   11  C   UNL     1     -11.113   2.550   0.000  1.00  0.00     0.158 A 
HETATM   12  O   UNL     1     -17.608   4.800   0.000  1.00  0.00    -0.195 OA
HETATM   13  C   UNL     1     -15.010   6.300   0.000  1.00  0.00     0.035 C 
HETATM   14  O   UNL     1     -12.412   0.300   0.000  1.00  0.00    -0.189 OA
HETATM   15  N   UNL     1      -9.814   1.800   0.000  1.00  0.00    -0.214 NA
HETATM   16  C   UNL     1      -8.515   2.550   0.000  1.00  0.00     0.205 A 
HETATM   17  O   UNL     1      -8.515   4.050   0.000  1.00  0.00    -0.169 OA
ENDROOT
BRANCH  16  18
HETATM   18  C   UNL     1      -7.216   1.800   0.000  1.00  0.00     0.004 A 
HETATM   19  C   UNL     1      -5.917   2.550   0.000  1.00  0.00     0.033 A 
HETATM   20  C   UNL     1      -4.618   1.800   0.000  1.00  0.00     0.055 A 
HETATM   21  C   UNL     1      -4.618   0.300   0.000  1.00  0.00     0.064 A 
HETATM   22  O   UNL     1      -3.319  -0.450   0.000  1.00  0.00    -0.341 OA
HETATM   23  C   UNL     1      -5.917  -0.450   0.000  1.00  0.00    -0.022 A 
HETATM   24  C   UNL     1      -3.319  -1.950   0.000  1.00  0.00     0.098 A 
HETATM   25  C   UNL     1      -4.618  -2.700   0.000  1.00  0.00     0.032 A 
HETATM   26  C   UNL     1      -1.841  -1.690   0.000  1.00  0.00     0.030 C 
HETATM   27  C   UNL     1      -2.806  -3.360   0.000  1.00  0.00     0.030 C 
HETATM   28  C   UNL     1      -5.917  -1.950   0.000  1.00  0.00     0.026 A 
HETATM   29  C   UNL     1      -7.216   0.300   0.000  1.00  0.00     0.049 A 
ENDBRANCH  16  18
TORSDOF 1
