REMARK  1 active torsions:
REMARK  status: ('A' for Active; 'I' for Inactive)
REMARK    1  A    between atoms: C_11  and  N_17 
ROOT
HETATM    1  C   UNL     1      -2.150   0.375   0.000  1.00  0.00     0.023 A 
HETATM    2  C   UNL     1      -3.650   0.375   0.000  1.00  0.00    -0.020 A 
HETATM    3  C   UNL     1      -6.551   1.318   0.000  1.00  0.00    -0.049 A 
HETATM    4  C   UNL     1      -7.764   2.199   0.000  1.00  0.00     0.021 A 
HETATM    5  C   UNL     1      -1.399  -0.924   0.000  1.00  0.00     0.006 A 
HETATM    6  C   UNL     1      -4.399  -0.924   0.000  1.00  0.00     0.232 A 
HETATM    7  C   UNL     1      -6.708  -0.174   0.000  1.00  0.00     0.067 A 
HETATM    8  C   UNL     1      -9.135   1.589   0.000  1.00  0.00     0.005 A 
HETATM    9  C   UNL     1      -2.150  -2.223   0.000  1.00  0.00     0.033 A 
HETATM   10  C   UNL     1      -3.650  -2.223   0.000  1.00  0.00     0.218 A 
HETATM   11  C   UNL     1      -6.708  -1.674   0.000  1.00  0.00     0.212 A 
HETATM   12  C   UNL     1      -8.078  -0.784   0.000  1.00  0.00     0.081 A 
HETATM   13  C   UNL     1      -9.292   0.098   0.000  1.00  0.00     0.013 A 
HETATM   14  S   UNL     1      -7.921  -2.556   0.000  1.00  0.00    -0.111 SA
HETATM   15  N   UNL     1      -5.281   0.289   0.000  1.00  0.00     0.000 N 
HETATM   16  H   UNL     1      -4.818   1.716   0.000  1.00  0.00     0.000 HD
HETATM   17  N   UNL     1      -5.281  -2.138   0.000  1.00  0.00    -0.016 N 
HETATM   18  H   UNL     1      -4.818  -3.564   0.000  1.00  0.00     0.284 HD
ENDROOT
TORSDOF 1
