REMARK  0 active torsions:
REMARK  status: ('A' for Active; 'I' for Inactive)
ROOT
HETATM    1  N   UNL     1      -1.310  -1.500   0.000  1.00  0.00    -0.291 NA
HETATM    2  C   UNL     1      -2.608  -0.750   0.000  1.00  0.00     0.142 A 
HETATM    3  C   UNL     1      -3.908  -1.500   0.000  1.00  0.00    -0.023 A 
HETATM    4  C   UNL     1      -5.207  -0.750   0.000  1.00  0.00     0.024 A 
HETATM    5  C   UNL     1      -6.506  -1.500   0.000  1.00  0.00     0.011 A 
HETATM    6  C   UNL     1      -3.908  -3.000   0.000  1.00  0.00    -0.005 A 
HETATM    7  C   UNL     1      -6.506  -3.000   0.000  1.00  0.00     0.054 A 
HETATM    8  C   UNL     1      -2.608  -3.750   0.000  1.00  0.00     0.053 A 
HETATM    9  C   UNL     1      -1.310  -3.000   0.000  1.00  0.00     0.125 A 
HETATM   10  C   UNL     1      -5.207  -3.750   0.000  1.00  0.00     0.104 A 
HETATM   11  O   UNL     1      -5.207  -5.250   0.000  1.00  0.00    -0.195 OA
ENDROOT
TORSDOF 0
