REMARK  2 active torsions:
REMARK  status: ('A' for Active; 'I' for Inactive)
REMARK    1  A    between atoms: N_10  and  C_15 
REMARK       I    between atoms: C_11  and  N_13 
REMARK    2  A    between atoms: C_11  and  C_15 
ROOT
HETATM    1  C   UNL     1       9.750   4.647   0.000  1.00  0.00     0.167 A 
HETATM    2  C   UNL     1       8.250   4.647   0.000  1.00  0.00     0.135 A 
HETATM    3  C   UNL     1       9.750   2.049   0.000  1.00  0.00     0.167 A 
HETATM    4  C   UNL     1       8.250   2.049   0.000  1.00  0.00     0.135 A 
HETATM    5  C   UNL     1       6.000   3.348   0.000  1.00  0.00     0.190 C 
HETATM    6  O   UNL     1       5.250   4.647   0.000  1.00  0.00    -0.174 OA
HETATM    7  N   UNL     1       7.500   3.348   0.000  1.00  0.00    -0.324 N 
HETATM    8  O   UNL     1      10.500   3.348   0.000  1.00  0.00    -0.350 OA
ENDROOT
BRANCH   5   9
HETATM    9  C   UNL     1       5.250   2.049   0.000  1.00  0.00     0.171 C 
BRANCH   9  10
HETATM   10  N   UNL     1       3.750   2.049   0.000  1.00  0.00    -0.358 N 
HETATM   11  C   UNL     1       3.000   3.348   0.000  1.00  0.00     0.130 A 
HETATM   12  C   UNL     1       1.500   3.348   0.000  1.00  0.00     0.166 A 
HETATM   13  O   UNL     1       0.750   2.049   0.000  1.00  0.00    -0.350 OA
HETATM   14  C   UNL     1       1.500   0.750   0.000  1.00  0.00     0.166 A 
HETATM   15  C   UNL     1       3.000   0.750   0.000  1.00  0.00     0.130 A 
ENDBRANCH   9  10
ENDBRANCH   5   9
TORSDOF 2
