REMARK  2 active torsions:
REMARK  status: ('A' for Active; 'I' for Inactive)
REMARK    1  A    between atoms: C_10  and  N_15 
REMARK    2  A    between atoms: N_15  and  C_16 
ROOT
HETATM    1  C   UNL     1       8.819  -4.774   0.000  1.00  0.00     0.048 A 
HETATM    2  C   UNL     1      10.118  -5.524   0.000  1.00  0.00     0.007 A 
HETATM    3  C   UNL     1       7.520  -5.524   0.000  1.00  0.00     0.084 A 
HETATM    4  C   UNL     1      10.118  -7.024   0.000  1.00  0.00     0.007 A 
HETATM    5  C   UNL     1       7.520  -7.024   0.000  1.00  0.00     0.122 A 
HETATM    6  C   UNL     1       8.819  -7.774   0.000  1.00  0.00     0.056 A 
HETATM    7  C   UNL     1       4.922  -5.524   0.000  1.00  0.00     0.299 A 
HETATM    8  O   UNL     1       4.922  -7.024   0.000  1.00  0.00    -0.150 OA
HETATM    9  N   UNL     1       6.221  -4.774   0.000  1.00  0.00    -0.206 NA
HETATM   10  O   UNL     1       6.221  -7.774   0.000  1.00  0.00    -0.190 OA
ENDROOT
BRANCH   7  11
HETATM   11  N   UNL     1       3.623  -4.774   0.000  1.00  0.00    -0.212 NA
BRANCH  11  12
HETATM   12  C   UNL     1       3.623  -3.275   0.000  1.00  0.00     0.046 A 
HETATM   13  C   UNL     1       4.922  -2.525   0.000  1.00  0.00     0.080 A 
HETATM   14  C   UNL     1       4.922  -1.024   0.000  1.00  0.00     0.048 A 
HETATM   15 CL   UNL     1       6.221  -0.275   0.000  1.00  0.00    -0.086 Cl
HETATM   16  C   UNL     1       3.623  -0.275   0.000  1.00  0.00     0.043 A 
HETATM   17 CL   UNL     1       3.623   1.226   0.000  1.00  0.00    -0.086 Cl
HETATM   18  C   UNL     1       2.324  -1.024   0.000  1.00  0.00     0.044 A 
HETATM   19  C   UNL     1       2.324  -2.525   0.000  1.00  0.00     0.047 A 
ENDBRANCH  11  12
ENDBRANCH   7  11
TORSDOF 2
