REMARK  5 active torsions:
REMARK  status: ('A' for Active; 'I' for Inactive)
REMARK    1  A    between atoms: C_1  and  C_8 
REMARK    2  A    between atoms: C_1  and  C_2 
REMARK    3  A    between atoms: C_2  and  C_21 
REMARK    4  A    between atoms: C_11  and  C_21 
REMARK    5  A    between atoms: C_17  and  C_21 
ROOT
HETATM    1  C   UNL     1      -6.770   1.226   0.000  1.00  0.00     0.179 C 
HETATM    2  O   UNL     1      -6.020  -0.072   0.000  1.00  0.00    -0.213 OA
ENDROOT
BRANCH   1   3
HETATM    3  C   UNL     1      -7.520   2.526   0.000  1.00  0.00    -0.062 C 
BRANCH   3   4
HETATM    4  C   UNL     1      -8.270   3.825   0.000  1.00  0.00    -0.089 C 
BRANCH   4   5
HETATM    5  C   UNL     1      -9.020   5.124   0.000  1.00  0.00     0.064 A 
HETATM    6  C   UNL     1      -8.270   6.423   0.000  1.00  0.00     0.013 A 
HETATM    7  C   UNL     1      -9.020   7.722   0.000  1.00  0.00     0.001 A 
HETATM    8  C   UNL     1     -10.520   7.722   0.000  1.00  0.00     0.000 A 
HETATM    9  C   UNL     1     -11.270   6.423   0.000  1.00  0.00     0.001 A 
HETATM   10  C   UNL     1     -10.520   5.124   0.000  1.00  0.00     0.013 A 
ENDBRANCH   4   5
ENDBRANCH   3   4
ENDBRANCH   1   3
BRANCH   1  11
HETATM   11  C   UNL     1      -5.471   1.976   0.000  1.00  0.00     0.040 A 
HETATM   12  C   UNL     1      -5.471   3.477   0.000  1.00  0.00     0.003 A 
HETATM   13  C   UNL     1      -4.172   4.226   0.000  1.00  0.00     0.000 A 
HETATM   14  C   UNL     1      -2.873   3.477   0.000  1.00  0.00     0.000 A 
HETATM   15  C   UNL     1      -2.873   1.976   0.000  1.00  0.00     0.000 A 
HETATM   16  C   UNL     1      -4.172   1.226   0.000  1.00  0.00     0.003 A 
ENDBRANCH   1  11
BRANCH   1  17
HETATM   17  C   UNL     1      -8.069   0.476   0.000  1.00  0.00     0.040 A 
HETATM   18  C   UNL     1      -9.368   1.226   0.000  1.00  0.00     0.003 A 
HETATM   19  C   UNL     1     -10.667   0.476   0.000  1.00  0.00     0.000 A 
HETATM   20  C   UNL     1     -10.667  -1.024   0.000  1.00  0.00     0.000 A 
HETATM   21  C   UNL     1      -9.368  -1.774   0.000  1.00  0.00     0.000 A 
HETATM   22  C   UNL     1      -8.069  -1.024   0.000  1.00  0.00     0.003 A 
ENDBRANCH   1  17
TORSDOF 5
