REMARK  5 active torsions:
REMARK  status: ('A' for Active; 'I' for Inactive)
REMARK    1  A    between atoms: C_10  and  C_12 
REMARK    2  A    between atoms: C_12  and  C_13 
REMARK    3  A    between atoms: C_13  and  C_14 
REMARK    4  A    between atoms: C_14  and  C_15 
REMARK    5  A    between atoms: C_15  and  C_16 
ROOT
HETATM    1  C   UNL     1      -6.221   3.275   0.000  1.00  0.00    -0.038 A 
HETATM    2  C   UNL     1      -4.922   2.525   0.000  1.00  0.00     0.041 A 
HETATM    3  C   UNL     1      -7.520   2.525   0.000  1.00  0.00     0.023 A 
HETATM    4  C   UNL     1      -4.922   1.024   0.000  1.00  0.00     0.033 A 
HETATM    5  C   UNL     1      -7.520   1.024   0.000  1.00  0.00     0.009 A 
HETATM    6  C   UNL     1      -6.221   0.275   0.000  1.00  0.00     0.031 A 
HETATM    7  C   UNL     1      -3.623   3.275   0.000  1.00  0.00     0.227 A 
HETATM    8  O   UNL     1      -2.324   2.525   0.000  1.00  0.00    -0.163 OA
HETATM    9  O   UNL     1      -3.623   4.774   0.000  1.00  0.00    -0.311 OA
HETATM   10  C   UNL     1      -4.922   5.524   0.000  1.00  0.00     0.128 A 
HETATM   11  C   UNL     1      -6.221   4.774   0.000  1.00  0.00     0.052 A 
HETATM   12  C   UNL     1      -3.623   0.275   0.000  1.00  0.00     0.257 A 
HETATM   13  O   UNL     1      -2.324   1.024   0.000  1.00  0.00    -0.161 OA
HETATM   14  O   UNL     1      -3.623  -1.226   0.000  1.00  0.00    -0.161 OA
ENDROOT
BRANCH  10  15
HETATM   15  C   UNL     1      -4.922   7.024   0.000  1.00  0.00     0.030 C 
BRANCH  15  16
HETATM   16  C   UNL     1      -6.221   7.774   0.000  1.00  0.00     0.003 C 
BRANCH  16  17
HETATM   17  C   UNL     1      -7.520   7.024   0.000  1.00  0.00     0.000 C 
BRANCH  17  18
HETATM   18  C   UNL     1      -8.819   7.774   0.000  1.00  0.00     0.000 C 
BRANCH  18  19
HETATM   19  C   UNL     1     -10.118   7.024   0.000  1.00  0.00     0.000 C 
HETATM   20  C   UNL     1     -11.417   7.774   0.000  1.00  0.00     0.000 C 
ENDBRANCH  18  19
ENDBRANCH  17  18
ENDBRANCH  16  17
ENDBRANCH  15  16
ENDBRANCH  10  15
TORSDOF 5
