REMARK  3 active torsions:
REMARK  status: ('A' for Active; 'I' for Inactive)
REMARK    1  A    between atoms: N_13  and  C_15 
REMARK    2  A    between atoms: C_15  and  C_16 
REMARK    3  A    between atoms: C_16  and  C_17 
ROOT
HETATM    1  C   UNL     1       8.169   2.150   0.000  1.00  0.00     0.034 A 
HETATM    2  C   UNL     1       2.973   2.150   0.000  1.00  0.00     0.034 A 
HETATM    3  C   UNL     1       9.468   1.399   0.000  1.00  0.00     0.006 A 
HETATM    4  C   UNL     1       6.870   1.399   0.000  1.00  0.00     0.019 A 
HETATM    5  C   UNL     1       4.272   1.399   0.000  1.00  0.00     0.019 A 
HETATM    6  C   UNL     1       1.674   1.399   0.000  1.00  0.00     0.006 A 
HETATM    7  C   UNL     1       9.468  -0.101   0.000  1.00  0.00     0.007 A 
HETATM    8  C   UNL     1       6.870  -0.101   0.000  1.00  0.00     0.039 A 
HETATM    9  C   UNL     1       4.272  -0.101   0.000  1.00  0.00     0.039 A 
HETATM   10  C   UNL     1       1.674  -0.101   0.000  1.00  0.00     0.007 A 
HETATM   11  C   UNL     1       8.169  -0.851   0.000  1.00  0.00     0.044 A 
HETATM   12  C   UNL     1       2.973  -0.851   0.000  1.00  0.00     0.044 A 
HETATM   13  N   UNL     1       5.571  -0.851   0.000  1.00  0.00    -0.333 N 
HETATM   14  S   UNL     1       5.571   2.150   0.000  1.00  0.00    -0.093 SA
ENDROOT
BRANCH  13  15
HETATM   15  C   UNL     1       5.571  -2.350   0.000  1.00  0.00     0.117 C 
BRANCH  15  16
HETATM   16  C   UNL     1       6.981  -2.864   0.000  1.00  0.00     0.122 C 
BRANCH  16  17
HETATM   17  C   UNL     1       7.241  -4.341   0.000  1.00  0.00     0.187 C 
HETATM   18  O   UNL     1       6.092  -5.305   0.000  1.00  0.00    -0.647 OA
HETATM   19  O   UNL     1       8.651  -4.854   0.000  1.00  0.00    -0.647 OA
ENDBRANCH  16  17
ENDBRANCH  15  16
ENDBRANCH  13  15
TORSDOF 3
