REMARK  10 active torsions:
REMARK  status: ('A' for Active; 'I' for Inactive)
REMARK    1  A    between atoms: N_2  and  N_4 
REMARK    2  A    between atoms: N_2  and  C_28 
REMARK    3  A    between atoms: C_11  and  C_32 
REMARK    4  A    between atoms: C_13  and  C_29 
REMARK    5  A    between atoms: C_15  and  C_31 
REMARK    6  A    between atoms: C_20  and  C_28 
REMARK    7  A    between atoms: C_23  and  N_25 
REMARK    8  A    between atoms: C_29  and  N_30 
REMARK    9  A    between atoms: N_30  and  C_31 
REMARK   10  A    between atoms: N_30  and  C_32 
ROOT
HETATM    1  O   UNL     1       3.289   6.744   0.000  1.00  0.00    -0.141 OA
HETATM    2  N   UNL     1       1.047   5.288   0.000  1.00  0.00    -0.210 N 
HETATM    3  O   UNL     1       0.793   7.702   0.000  1.00  0.00    -0.293 OA
HETATM    4  C   UNL     1      -0.420   5.600   0.000  1.00  0.00     0.163 A 
HETATM    5  C   UNL     1      -0.577   7.092   0.000  1.00  0.00     0.171 A 
HETATM    6  C   UNL     1       1.797   6.587   0.000  1.00  0.00     0.316 A 
ENDROOT
BRANCH   5   7
HETATM    7  C   UNL     1      -1.876   7.842   0.000  1.00  0.00     0.130 C 
BRANCH   7   8
HETATM    8  N   UNL     1      -3.175   7.092   0.000  1.00  0.00    -0.366 N 
BRANCH   8   9
HETATM    9  C   UNL     1      -4.474   7.842   0.000  1.00  0.00     0.097 C 
BRANCH   9  10
HETATM   10  C   UNL     1      -4.474   9.342   0.000  1.00  0.00     0.022 A 
HETATM   11  C   UNL     1      -5.773  10.092   0.000  1.00  0.00     0.002 A 
HETATM   12  C   UNL     1      -5.773  11.592   0.000  1.00  0.00     0.000 A 
HETATM   13  C   UNL     1      -4.474  12.342   0.000  1.00  0.00     0.000 A 
HETATM   14  C   UNL     1      -3.175  11.592   0.000  1.00  0.00     0.000 A 
HETATM   15  C   UNL     1      -3.175  10.092   0.000  1.00  0.00     0.002 A 
ENDBRANCH   9  10
ENDBRANCH   8   9
BRANCH   8  16
HETATM   16  C   UNL     1      -3.175   5.592   0.000  1.00  0.00     0.097 C 
BRANCH  16  17
HETATM   17  C   UNL     1      -4.474   4.842   0.000  1.00  0.00     0.022 A 
HETATM   18  C   UNL     1      -4.474   3.342   0.000  1.00  0.00     0.002 A 
HETATM   19  C   UNL     1      -5.773   2.592   0.000  1.00  0.00     0.000 A 
HETATM   20  C   UNL     1      -7.072   3.342   0.000  1.00  0.00     0.000 A 
HETATM   21  C   UNL     1      -7.072   4.842   0.000  1.00  0.00     0.000 A 
HETATM   22  C   UNL     1      -5.773   5.592   0.000  1.00  0.00     0.002 A 
ENDBRANCH  16  17
ENDBRANCH   8  16
ENDBRANCH   7   8
ENDBRANCH   5   7
BRANCH   2  23
HETATM   23  N   UNL     1       1.410   3.833   0.000  1.00  0.00    -0.190 NA
BRANCH  23  24
HETATM   24  C   UNL     1       0.331   2.791   0.000  1.00  0.00     0.177 C 
BRANCH  24  25
HETATM   25  C   UNL     1       0.694   1.335   0.000  1.00  0.00     0.149 A 
HETATM   26  O   UNL     1       2.085   0.773   0.000  1.00  0.00    -0.315 OA
HETATM   27  C   UNL     1       1.980  -0.723   0.000  1.00  0.00     0.199 A 
HETATM   28  C   UNL     1       0.525  -1.086   0.000  1.00  0.00     0.079 A 
HETATM   29  C   UNL     1      -0.270   0.186   0.000  1.00  0.00     0.041 A 
BRANCH  27  30
HETATM   30  N   UNL     1       3.129  -1.687   0.000  1.00  0.00    -0.094 N 
HETATM   31  O   UNL     1       2.869  -3.164   0.000  1.00  0.00    -0.530 OA
HETATM   32  O   UNL     1       4.539  -1.174   0.000  1.00  0.00    -0.530 OA
ENDBRANCH  27  30
ENDBRANCH  24  25
ENDBRANCH  23  24
ENDBRANCH   2  23
TORSDOF 10
