REMARK  5 active torsions:
REMARK  status: ('A' for Active; 'I' for Inactive)
REMARK    1  A    between atoms: C_3  and  C_7 
REMARK    2  A    between atoms: C_7  and  O_9 
REMARK    3  A    between atoms: O_9  and  C_10 
REMARK    4  A    between atoms: C_10  and  C_11 
REMARK    5  A    between atoms: C_11  and  C_12 
ROOT
HETATM    1  C   UNL     1       3.522   4.399   0.000  1.00  0.00     0.222 C 
HETATM    2  O   UNL     1       4.821   3.650   0.000  1.00  0.00    -0.164 OA
ENDROOT
BRANCH   1   3
HETATM    3  C   UNL     1       2.223   3.650   0.000  1.00  0.00     0.028 A 
HETATM    4  C   UNL     1       0.924   4.399   0.000  1.00  0.00     0.146 A 
HETATM    5  N   UNL     1      -0.375   3.650   0.000  1.00  0.00    -0.291 NA
HETATM    6  C   UNL     1      -0.375   2.150   0.000  1.00  0.00     0.121 A 
HETATM    7  C   UNL     1       0.924   1.399   0.000  1.00  0.00     0.030 A 
HETATM    8  C   UNL     1       2.223   2.150   0.000  1.00  0.00     0.030 A 
ENDBRANCH   1   3
BRANCH   1   9
HETATM    9  O   UNL     1       3.522   5.899   0.000  1.00  0.00    -0.309 OA
BRANCH   9  10
HETATM   10  C   UNL     1       4.821   6.649   0.000  1.00  0.00     0.151 C 
BRANCH  10  11
HETATM   11  C   UNL     1       6.120   5.899   0.000  1.00  0.00     0.033 C 
BRANCH  11  12
HETATM   12  C   UNL     1       7.419   6.649   0.000  1.00  0.00     0.003 C 
HETATM   13  C   UNL     1       8.718   5.899   0.000  1.00  0.00     0.000 C 
ENDBRANCH  11  12
ENDBRANCH  10  11
ENDBRANCH   9  10
ENDBRANCH   1   9
TORSDOF 5
