REMARK  4 active torsions:
REMARK  status: ('A' for Active; 'I' for Inactive)
REMARK    1  A    between atoms: C_3  and  O_11 
REMARK    2  A    between atoms: C_6  and  O_7 
REMARK    3  A    between atoms: O_7  and  C_8 
REMARK    4  A    between atoms: O_11  and  C_12 
ROOT
HETATM    1  O   UNL     1      -5.946  -0.750   0.000  1.00  0.00    -0.324 OA
HETATM    2  O   UNL     1      -5.946  -3.750   0.000  1.00  0.00    -0.324 OA
HETATM    3  C   UNL     1      -4.647  -1.500   0.000  1.00  0.00     0.269 A 
HETATM    4  C   UNL     1      -4.647  -3.000   0.000  1.00  0.00     0.206 A 
HETATM    5  C   UNL     1      -7.245  -1.500   0.000  1.00  0.00     0.206 A 
HETATM    6  C   UNL     1      -7.245  -3.000   0.000  1.00  0.00     0.269 A 
ENDROOT
BRANCH   3   7
HETATM    7  O   UNL     1      -3.348  -0.750   0.000  1.00  0.00    -0.302 OA
BRANCH   7   8
HETATM    8  C   UNL     1      -2.049  -1.500   0.000  1.00  0.00     0.271 C 
HETATM    9  O   UNL     1      -0.750  -0.750   0.000  1.00  0.00    -0.190 OA
HETATM   10  C   UNL     1      -2.049  -3.000   0.000  1.00  0.00     0.070 C 
ENDBRANCH   7   8
ENDBRANCH   3   7
BRANCH   6  11
HETATM   11  O   UNL     1      -8.544  -3.750   0.000  1.00  0.00    -0.302 OA
BRANCH  11  12
HETATM   12  C   UNL     1      -9.843  -3.000   0.000  1.00  0.00     0.271 C 
HETATM   13  O   UNL     1     -11.142  -3.750   0.000  1.00  0.00    -0.190 OA
HETATM   14  C   UNL     1      -9.843  -1.500   0.000  1.00  0.00     0.070 C 
ENDBRANCH  11  12
ENDBRANCH   6  11
TORSDOF 4
