REMARK  1 active torsions:
REMARK  status: ('A' for Active; 'I' for Inactive)
REMARK    1  A    between atoms: N_5  and  C_14 
ROOT
HETATM    1  H   UNL     1       1.086  10.725   0.000  1.00  0.00     0.155 HD
HETATM    2  N   UNL     1       2.385  11.475   0.000  1.00  0.00    -0.389 N 
HETATM    3  O   UNL     1       4.983  12.975   0.000  1.00  0.00    -0.350 OA
HETATM    4  C   UNL     1       3.684  13.725   0.000  1.00  0.00     0.166 A 
HETATM    5  C   UNL     1       2.385  12.975   0.000  1.00  0.00     0.126 A 
HETATM    6  C   UNL     1       4.983  11.475   0.000  1.00  0.00     0.166 A 
HETATM    7  C   UNL     1       3.684  10.725   0.000  1.00  0.00     0.126 A 
ENDROOT
TORSDOF 1
