REMARK  4 active torsions:
REMARK  status: ('A' for Active; 'I' for Inactive)
REMARK    1  A    between atoms: N_1  and  N_14 
REMARK    2  A    between atoms: N_1  and  C_17 
REMARK    3  A    between atoms: C_7  and  C_17 
REMARK    4  A    between atoms: C_8  and  O_20 
REMARK       I    between atoms: C_12  and  N_14 
ROOT
HETATM    1  O   UNL     1      -3.424   0.898   0.000  1.00  0.00    -0.329 OA
HETATM    2  C   UNL     1      -6.150   1.185   0.000  1.00  0.00     0.138 A 
HETATM    3  C   UNL     1      -4.851   0.435   0.000  1.00  0.00     0.116 A 
HETATM    4  C   UNL     1      -7.449   0.435   0.000  1.00  0.00     0.118 A 
HETATM    5  C   UNL     1      -4.851  -1.065   0.000  1.00  0.00     0.027 A 
HETATM    6  C   UNL     1      -7.449  -1.065   0.000  1.00  0.00     0.050 A 
HETATM    7  C   UNL     1      -6.150  -1.815   0.000  1.00  0.00     0.092 A 
HETATM    8  C   UNL     1      -3.424  -1.529   0.000  1.00  0.00     0.063 A 
HETATM    9  C   UNL     1      -2.543  -0.315   0.000  1.00  0.00     0.154 A 
HETATM   10  O   UNL     1      -8.748   1.185   0.000  1.00  0.00    -0.326 OA
HETATM   11  C   UNL     1      -8.748   2.685   0.000  1.00  0.00     0.181 A 
HETATM   12  O   UNL     1      -6.150   2.685   0.000  1.00  0.00    -0.324 OA
HETATM   13  C   UNL     1      -7.449   3.435   0.000  1.00  0.00     0.182 A 
ENDROOT
BRANCH   6  14
HETATM   14  C   UNL     1      -8.748  -1.815   0.000  1.00  0.00     0.180 C 
BRANCH  14  15
HETATM   15  N   UNL     1     -10.047  -1.065   0.000  1.00  0.00    -0.167 NA
BRANCH  15  16
HETATM   16  N   UNL     1     -11.346  -1.815   0.000  1.00  0.00    -0.110 NA
HETATM   17  C   UNL     1     -11.346  -3.315   0.000  1.00  0.00     0.304 C 
HETATM   18  N   UNL     1     -12.645  -4.065   0.000  1.00  0.00    -0.051 NA
HETATM   19  O   UNL     1     -10.047  -4.065   0.000  1.00  0.00    -0.151 OA
ENDBRANCH  15  16
ENDBRANCH  14  15
ENDBRANCH   6  14
BRANCH   7  20
HETATM   20  O   UNL     1      -6.150  -3.315   0.000  1.00  0.00    -0.329 OA
HETATM   21  C   UNL     1      -7.449  -4.065   0.000  1.00  0.00     0.181 C 
ENDBRANCH   7  20
TORSDOF 4
