REMARK  0 active torsions:
REMARK  status: ('A' for Active; 'I' for Inactive)
ROOT
HETATM    1  N   UNL     1       2.049   3.000   0.000  1.00  0.00    -0.234 NA
HETATM    2  N   UNL     1       3.348   0.750   0.000  1.00  0.00    -0.195 NA
HETATM    3  N   UNL     1       6.074   3.463   0.000  1.00  0.00    -0.327 N 
HETATM    4  H   UNL     1       6.537   4.890   0.000  1.00  0.00     0.168 HD
HETATM    5  N   UNL     1       6.074   1.036   0.000  1.00  0.00    -0.196 NA
HETATM    6  C   UNL     1       3.348   3.750   0.000  1.00  0.00     0.175 A 
HETATM    7  C   UNL     1       4.647   3.000   0.000  1.00  0.00     0.097 A 
HETATM    8  C   UNL     1       4.647   1.500   0.000  1.00  0.00     0.181 A 
HETATM    9  C   UNL     1       6.955   2.250   0.000  1.00  0.00     0.216 A 
HETATM   10  C   UNL     1       2.049   1.500   0.000  1.00  0.00     0.235 A 
HETATM   11  N   UNL     1       0.750   0.750   0.000  1.00  0.00    -0.060 NA
HETATM   12  N   UNL     1       8.455   2.250   0.000  1.00  0.00    -0.061 NA
ENDROOT
TORSDOF 0
