REMARK  0 active torsions:
REMARK  status: ('A' for Active; 'I' for Inactive)
ROOT
HETATM    1  O   UNL     1       5.946   0.750   0.000  1.00  0.00    -0.316 OA
HETATM    2  O   UNL     1      11.142   0.750   0.000  1.00  0.00    -0.193 OA
HETATM    3  C   UNL     1       5.946   3.750   0.000  1.00  0.00    -0.026 A 
HETATM    4  C   UNL     1       4.647   3.000   0.000  1.00  0.00    -0.001 A 
HETATM    5  C   UNL     1       7.245   3.000   0.000  1.00  0.00    -0.001 A 
HETATM    6  C   UNL     1       8.544   3.750   0.000  1.00  0.00     0.084 A 
HETATM    7  C   UNL     1       9.843   3.000   0.000  1.00  0.00     0.134 A 
HETATM    8  C   UNL     1       3.348   3.750   0.000  1.00  0.00     0.084 A 
HETATM    9  C   UNL     1       2.049   3.000   0.000  1.00  0.00     0.134 A 
HETATM   10  C   UNL     1       9.843   1.500   0.000  1.00  0.00     0.136 A 
HETATM   11  C   UNL     1       7.245   1.500   0.000  1.00  0.00     0.080 A 
HETATM   12  C   UNL     1       4.647   1.500   0.000  1.00  0.00     0.080 A 
HETATM   13  C   UNL     1       2.049   1.500   0.000  1.00  0.00     0.136 A 
HETATM   14  C   UNL     1       8.544   0.750   0.000  1.00  0.00     0.107 A 
HETATM   15  C   UNL     1       3.348   0.750   0.000  1.00  0.00     0.107 A 
HETATM   16  O   UNL     1       0.750   3.750   0.000  1.00  0.00    -0.193 OA
HETATM   17  O   UNL     1       0.750   0.750   0.000  1.00  0.00    -0.193 OA
HETATM   18  C   UNL     1       5.946   5.250   0.000  1.00  0.00     0.030 C 
HETATM   19  O   UNL     1      11.142   3.750   0.000  1.00  0.00    -0.193 OA
ENDROOT
TORSDOF 0
