REMARK  3 active torsions:
REMARK  status: ('A' for Active; 'I' for Inactive)
REMARK    1  A    between atoms: C_7  and  C_9 
REMARK    2  A    between atoms: C_13  and  O_20 
REMARK    3  A    between atoms: C_14  and  O_18 
ROOT
HETATM    1  O   UNL     1      -5.946  -3.000   0.000  1.00  0.00    -0.310 OA
HETATM    2  O   UNL     1      -5.946  -7.500   0.000  1.00  0.00    -0.195 OA
HETATM    3  C   UNL     1      -4.647  -3.750   0.000  1.00  0.00     0.078 A 
HETATM    4  C   UNL     1      -4.647  -5.250   0.000  1.00  0.00     0.105 A 
HETATM    5  C   UNL     1      -5.946  -6.000   0.000  1.00  0.00     0.113 A 
HETATM    6  C   UNL     1      -7.245  -5.250   0.000  1.00  0.00     0.025 A 
HETATM    7  C   UNL     1      -8.544  -3.000   0.000  1.00  0.00     0.135 A 
HETATM    8  C   UNL     1      -9.843  -3.750   0.000  1.00  0.00     0.096 A 
HETATM    9  C   UNL     1      -7.245  -3.750   0.000  1.00  0.00     0.121 A 
HETATM   10  C   UNL     1      -9.843  -5.250   0.000  1.00  0.00     0.058 A 
HETATM   11  C   UNL     1      -8.544  -6.000   0.000  1.00  0.00     0.037 A 
ENDROOT
BRANCH   3  12
HETATM   12  C   UNL     1      -3.348  -3.000   0.000  1.00  0.00    -0.001 A 
HETATM   13  C   UNL     1      -2.049  -3.750   0.000  1.00  0.00     0.028 A 
HETATM   14  C   UNL     1      -0.750  -3.000   0.000  1.00  0.00     0.030 A 
HETATM   15  C   UNL     1      -0.750  -1.500   0.000  1.00  0.00     0.121 A 
HETATM   16  N   UNL     1      -2.049  -0.750   0.000  1.00  0.00    -0.291 NA
HETATM   17  C   UNL     1      -3.348  -1.500   0.000  1.00  0.00     0.144 A 
ENDBRANCH   3  12
BRANCH   7  18
HETATM   18  O   UNL     1      -8.544  -1.500   0.000  1.00  0.00    -0.325 OA
HETATM   19  C   UNL     1      -9.843  -0.750   0.000  1.00  0.00     0.182 C 
ENDBRANCH   7  18
BRANCH   8  20
HETATM   20  O   UNL     1     -11.142  -3.000   0.000  1.00  0.00    -0.330 OA
HETATM   21  C   UNL     1     -12.441  -3.750   0.000  1.00  0.00     0.181 C 
ENDBRANCH   8  20
TORSDOF 3
