REMARK  2 active torsions:
REMARK  status: ('A' for Active; 'I' for Inactive)
REMARK    1  A    between atoms: N_2  and  C_27 
REMARK    2  A    between atoms: C_5  and  C_27 
ROOT
HETATM    1  O   UNL     1      -3.447  -3.558   0.000  1.00  0.00    -0.225 OA
HETATM    2  C   UNL     1      -5.337  -5.448   0.000  1.00  0.00     0.061 A 
HETATM    3  C   UNL     1      -3.911  -4.984   0.000  1.00  0.00     0.139 A 
HETATM    4  C   UNL     1      -3.029  -6.198   0.000  1.00  0.00     0.055 A 
HETATM    5  C   UNL     1      -6.636  -4.698   0.000  1.00  0.00    -0.043 A 
HETATM    6  C   UNL     1      -7.936  -5.448   0.000  1.00  0.00    -0.049 A 
HETATM    7  C   UNL     1      -3.911  -7.411   0.000  1.00  0.00     0.026 A 
HETATM    8  C   UNL     1      -5.337  -6.948   0.000  1.00  0.00    -0.046 A 
HETATM    9  C   UNL     1      -7.936  -6.948   0.000  1.00  0.00     0.032 A 
HETATM   10  C   UNL     1      -6.636  -7.698   0.000  1.00  0.00    -0.049 A 
HETATM   11  C   UNL     1      -9.235  -7.698   0.000  1.00  0.00     0.011 A 
HETATM   12  C   UNL     1     -10.534  -6.948   0.000  1.00  0.00     0.007 A 
HETATM   13  C   UNL     1     -11.833  -7.698   0.000  1.00  0.00     0.033 A 
HETATM   14  C   UNL     1      -6.636  -9.198   0.000  1.00  0.00     0.022 A 
HETATM   15  C   UNL     1      -9.235  -9.198   0.000  1.00  0.00     0.004 A 
HETATM   16  C   UNL     1     -11.833  -9.198   0.000  1.00  0.00     0.152 A 
HETATM   17  C   UNL     1      -7.936  -9.948   0.000  1.00  0.00     0.004 A 
HETATM   18  C   UNL     1     -10.534  -9.948   0.000  1.00  0.00     0.033 A 
HETATM   19  O   UNL     1     -13.132  -9.948   0.000  1.00  0.00    -0.224 OA
HETATM   20  C   UNL     1      -9.235  -6.198   0.000  1.00  0.00     0.022 A 
HETATM   21  C   UNL     1      -5.181  -3.956   0.000  1.00  0.00     0.056 A 
ENDROOT
BRANCH   4  22
HETATM   22  C   UNL     1      -1.529  -6.198   0.000  1.00  0.00     0.100 C 
BRANCH  22  23
HETATM   23  N   UNL     1      -0.779  -7.497   0.000  1.00  0.00    -0.368 N 
HETATM   24  C   UNL     1       0.713  -7.653   0.000  1.00  0.00     0.097 A 
HETATM   25  C   UNL     1       1.024  -9.121   0.000  1.00  0.00     0.026 A 
HETATM   26  C   UNL     1      -0.275  -9.871   0.000  1.00  0.00     0.026 A 
HETATM   27  C   UNL     1      -1.389  -8.867   0.000  1.00  0.00     0.097 A 
ENDBRANCH  22  23
ENDBRANCH   4  22
TORSDOF 2
