REMARK  2 active torsions:
REMARK  status: ('A' for Active; 'I' for Inactive)
REMARK    1  A    between atoms: N_1  and  S_22 
REMARK    2  A    between atoms: C_8  and  S_22 
ROOT
HETATM    1  S   UNL     1       3.522   5.899   0.000  1.00  0.00     0.142 S 
HETATM    2  O   UNL     1       2.772   7.199   0.000  1.00  0.00    -0.222 OA
HETATM    3  O   UNL     1       4.272   4.601   0.000  1.00  0.00    -0.351 OA
ENDROOT
BRANCH   1   4
HETATM    4  N   UNL     1       2.223   5.149   0.000  1.00  0.00    -0.297 N 
HETATM    5  C   UNL     1       2.223   3.650   0.000  1.00  0.00     0.398 A 
HETATM    6  C   UNL     1       3.522   2.900   0.000  1.00  0.00     0.018 A 
HETATM    7  C   UNL     1       0.924   2.900   0.000  1.00  0.00     0.036 A 
HETATM    8  C   UNL     1       3.522   1.399   0.000  1.00  0.00     0.002 A 
HETATM    9  C   UNL     1       2.223   0.649   0.000  1.00  0.00    -0.000 A 
HETATM   10  C   UNL     1       0.924   1.399   0.000  1.00  0.00    -0.004 A 
HETATM   11  C   UNL     1      -0.375   3.650   0.000  1.00  0.00    -0.002 A 
HETATM   12  C   UNL     1      -0.375   5.149   0.000  1.00  0.00     0.024 A 
HETATM   13  C   UNL     1       0.924   5.899   0.000  1.00  0.00     0.111 A 
ENDBRANCH   1   4
BRANCH   1  14
HETATM   14  C   UNL     1       4.821   6.649   0.000  1.00  0.00     0.116 A 
HETATM   15  C   UNL     1       4.821   8.149   0.000  1.00  0.00     0.023 A 
HETATM   16  C   UNL     1       6.120   8.899   0.000  1.00  0.00     0.044 A 
HETATM   17  C   UNL     1       7.419   8.149   0.000  1.00  0.00     0.022 A 
HETATM   18  N   UNL     1       8.718   8.899   0.000  1.00  0.00    -0.377 N 
HETATM   19  C   UNL     1       7.419   6.649   0.000  1.00  0.00    -0.032 A 
HETATM   20  H   UNL     1       8.718  10.399   0.000  1.00  0.00     0.160 HD
HETATM   21  C   UNL     1      10.017   8.149   0.000  1.00  0.00     0.098 A 
HETATM   22  C   UNL     1      10.017   6.649   0.000  1.00  0.00     0.028 A 
HETATM   23  C   UNL     1       8.718   5.899   0.000  1.00  0.00     0.025 A 
HETATM   24  C   UNL     1       6.120   5.899   0.000  1.00  0.00     0.040 A 
ENDBRANCH   1  14
TORSDOF 2
