REMARK  0 active torsions:
REMARK  status: ('A' for Active; 'I' for Inactive)
ROOT
HETATM    1  N   UNL     1      -7.066  -1.074   0.000  1.00  0.00    -0.279 NA
HETATM    2  C   UNL     1      -7.066   0.426   0.000  1.00  0.00     0.088 A 
HETATM    3  C   UNL     1      -5.766   1.176   0.000  1.00  0.00     0.044 A 
HETATM    4  C   UNL     1      -3.041   0.890   0.000  1.00  0.00     0.029 A 
HETATM    5  C   UNL     1      -4.467   0.426   0.000  1.00  0.00    -0.039 A 
HETATM    6  C   UNL     1      -2.159  -0.324   0.000  1.00  0.00     0.059 A 
HETATM    7  C   UNL     1      -3.041  -1.538   0.000  1.00  0.00     0.109 A 
HETATM    8  C   UNL     1      -4.467  -1.074   0.000  1.00  0.00     0.027 A 
HETATM    9  C   UNL     1      -5.766  -1.824   0.000  1.00  0.00     0.055 A 
HETATM   10  C   UNL     1      -8.543   0.166   0.000  1.00  0.00     0.025 C 
HETATM   11  C   UNL     1      -7.579   1.836   0.000  1.00  0.00     0.025 C 
HETATM   12  C   UNL     1      -5.766  -3.324   0.000  1.00  0.00     0.052 C 
HETATM   13  O   UNL     1      -2.577  -2.964   0.000  1.00  0.00    -0.195 OA
ENDROOT
TORSDOF 0
