REMARK  4 active torsions:
REMARK  status: ('A' for Active; 'I' for Inactive)
REMARK    1  A    between atoms: C_7  and  C_13 
REMARK    2  A    between atoms: C_12  and  C_16 
REMARK    3  A    between atoms: C_13  and  C_15 
REMARK    4  A    between atoms: C_15  and  C_16 
ROOT
HETATM    1  C   UNL     1      -1.317   1.138   0.000  1.00  0.00     0.111 C 
HETATM    2  O   UNL     1      -1.312   2.638   0.000  1.00  0.00    -0.195 OA
ENDROOT
BRANCH   1   3
HETATM    3  C   UNL     1      -2.618   0.392   0.000  1.00  0.00     0.029 A 
HETATM    4  S   UNL     1      -2.779  -1.099   0.000  1.00  0.00    -0.082 SA
HETATM    5  C   UNL     1      -4.247  -1.407   0.000  1.00  0.00     0.065 A 
HETATM    6 CL   UNL     1      -4.861  -2.775   0.000  1.00  0.00    -0.080 Cl
HETATM    7  C   UNL     1      -4.993  -0.105   0.000  1.00  0.00     0.050 A 
HETATM    8  C   UNL     1      -3.986   1.006   0.000  1.00  0.00     0.041 A 
ENDBRANCH   1   3
BRANCH   1   9
HETATM    9  C   UNL     1      -0.020   0.385   0.000  1.00  0.00     0.055 C 
BRANCH   9  10
HETATM   10  C   UNL     1       1.282   1.131   0.000  1.00  0.00     0.018 C 
BRANCH  10  11
HETATM   11  C   UNL     1       2.578   0.377   0.000  1.00  0.00     0.053 A 
HETATM   12  S   UNL     1       3.950   0.983   0.000  1.00  0.00    -0.107 SA
HETATM   13  C   UNL     1       4.951  -0.135   0.000  1.00  0.00     0.060 A 
HETATM   14 CL   UNL     1       6.443   0.018   0.000  1.00  0.00    -0.080 Cl
HETATM   15  C   UNL     1       4.197  -1.432   0.000  1.00  0.00     0.045 A 
HETATM   16  C   UNL     1       2.731  -1.115   0.000  1.00  0.00     0.017 A 
ENDBRANCH  10  11
ENDBRANCH   9  10
ENDBRANCH   1   9
TORSDOF 4
