REMARK  4 active torsions:
REMARK  status: ('A' for Active; 'I' for Inactive)
REMARK    1  A    between atoms: C_6  and  N_24 
REMARK    2  A    between atoms: C_7  and  C_9 
REMARK       I    between atoms: C_7  and  N_24 
REMARK    3  A    between atoms: C_14  and  C_16 
REMARK       I    between atoms: C_16  and  N_25 
REMARK    4  A    between atoms: C_17  and  N_25 
ROOT
HETATM    1  C   UNL     1       9.000   3.348   0.000  1.00  0.00     0.000 A 
HETATM    2  C   UNL     1       9.750   2.049   0.000  1.00  0.00     0.030 A 
HETATM    3  C   UNL     1       9.750   4.647   0.000  1.00  0.00     0.030 A 
HETATM    4  C   UNL     1      11.250   4.647   0.000  1.00  0.00     0.030 A 
HETATM    5  C   UNL     1      11.250   2.049   0.000  1.00  0.00     0.030 A 
HETATM    6  C   UNL     1      12.000   3.348   0.000  1.00  0.00     0.000 A 
ENDROOT
BRANCH   1   7
HETATM    7  C   UNL     1       7.500   3.348   0.000  1.00  0.00     0.204 C 
HETATM    8  O   UNL     1       6.750   4.647   0.000  1.00  0.00    -0.170 OA
HETATM    9  N   UNL     1       6.750   2.049   0.000  1.00  0.00    -0.229 NA
BRANCH   9  10
HETATM   10  C   UNL     1       5.250   2.049   0.000  1.00  0.00     0.039 A 
HETATM   11  C   UNL     1       4.500   0.750   0.000  1.00  0.00     0.044 A 
HETATM   12  C   UNL     1       3.000   0.750   0.000  1.00  0.00     0.045 A 
HETATM   13  C   UNL     1       2.250   2.049   0.000  1.00  0.00     0.303 A 
HETATM   14  C   UNL     1       3.000   3.348   0.000  1.00  0.00     0.045 A 
HETATM   15  N   UNL     1       0.750   2.049   0.000  1.00  0.00     0.616 N 
HETATM   16  C   UNL     1       4.500   3.348   0.000  1.00  0.00     0.044 A 
ENDBRANCH   9  10
ENDBRANCH   1   7
BRANCH   6  17
HETATM   17  C   UNL     1      13.500   3.348   0.000  1.00  0.00     0.204 C 
HETATM   18  O   UNL     1      14.250   4.647   0.000  1.00  0.00    -0.170 OA
HETATM   19  N   UNL     1      14.250   2.049   0.000  1.00  0.00    -0.229 NA
BRANCH  19  20
HETATM   20  C   UNL     1      15.750   2.049   0.000  1.00  0.00     0.039 A 
HETATM   21  C   UNL     1      16.500   3.348   0.000  1.00  0.00     0.044 A 
HETATM   22  C   UNL     1      18.000   3.348   0.000  1.00  0.00     0.045 A 
HETATM   23  C   UNL     1      18.750   2.049   0.000  1.00  0.00     0.303 A 
HETATM   24  C   UNL     1      18.000   0.750   0.000  1.00  0.00     0.045 A 
HETATM   25  N   UNL     1      20.250   2.049   0.000  1.00  0.00     0.616 N 
HETATM   26  C   UNL     1      16.500   0.750   0.000  1.00  0.00     0.044 A 
ENDBRANCH  19  20
ENDBRANCH   6  17
TORSDOF 4
