REMARK  7 active torsions:
REMARK  status: ('A' for Active; 'I' for Inactive)
REMARK    1  A    between atoms: N_2  and  C_18 
REMARK    2  A    between atoms: C_6  and  C_10 
REMARK    3  A    between atoms: C_7  and  C_8 
REMARK    4  A    between atoms: C_8  and  O_12 
REMARK    5  A    between atoms: C_10  and  O_15 
REMARK    6  A    between atoms: O_12  and  C_13 
REMARK    7  A    between atoms: O_15  and  C_16 
ROOT
HETATM    1  O   UNL     1       6.152   8.612   0.000  1.00  0.00    -0.168 OA
HETATM    2  N   UNL     1       4.696   6.370   0.000  1.00  0.00    -0.288 N 
HETATM    3  O   UNL     1       8.577   6.428   0.000  1.00  0.00    -0.186 OA
HETATM    4  C   UNL     1       7.110   6.117   0.000  1.00  0.00     0.179 A 
HETATM    5  C   UNL     1       5.995   7.120   0.000  1.00  0.00     0.224 A 
HETATM    6  C   UNL     1       6.500   4.746   0.000  1.00  0.00     0.098 A 
HETATM    7  C   UNL     1       5.008   4.903   0.000  1.00  0.00     0.120 A 
ENDROOT
BRANCH   6   8
HETATM    8  C   UNL     1       7.250   3.447   0.000  1.00  0.00     0.232 C 
HETATM    9  O   UNL     1       6.500   2.148   0.000  1.00  0.00    -0.163 OA
BRANCH   8  10
HETATM   10  O   UNL     1       8.749   3.447   0.000  1.00  0.00    -0.309 OA
BRANCH  10  11
HETATM   11  C   UNL     1       9.499   4.746   0.000  1.00  0.00     0.151 C 
HETATM   12  C   UNL     1      10.999   4.746   0.000  1.00  0.00     0.035 C 
ENDBRANCH  10  11
ENDBRANCH   8  10
ENDBRANCH   6   8
BRANCH   7  13
HETATM   13  C   UNL     1       4.004   3.788   0.000  1.00  0.00     0.245 C 
HETATM   14  O   UNL     1       4.468   2.362   0.000  1.00  0.00    -0.162 OA
BRANCH  13  15
HETATM   15  O   UNL     1       2.537   4.100   0.000  1.00  0.00    -0.308 OA
BRANCH  15  16
HETATM   16  C   UNL     1       1.533   2.986   0.000  1.00  0.00     0.151 C 
HETATM   17  C   UNL     1       0.066   3.297   0.000  1.00  0.00     0.035 C 
ENDBRANCH  15  16
ENDBRANCH  13  15
ENDBRANCH   7  13
BRANCH   2  18
HETATM   18  C   UNL     1       3.325   6.980   0.000  1.00  0.00     0.022 C 
HETATM   19  C   UNL     1       3.169   8.472   0.000  1.00  0.00     0.046 C 
HETATM   20  C   UNL     1       2.112   6.099   0.000  1.00  0.00     0.046 C 
ENDBRANCH   2  18
TORSDOF 7
