REMARK  4 active torsions:
REMARK  status: ('A' for Active; 'I' for Inactive)
REMARK    1  A    between atoms: C_5  and  N_17 
REMARK    2  A    between atoms: C_9  and  N_17 
REMARK    3  A    between atoms: C_10  and  O_15 
REMARK    4  A    between atoms: C_12  and  S_13 
ROOT
HETATM    1  C   UNL     1       7.520  -2.525   0.000  1.00  0.00     0.042 A 
HETATM    2  C   UNL     1       8.819  -3.275   0.000  1.00  0.00     0.020 A 
HETATM    3  C   UNL     1       6.221  -3.275   0.000  1.00  0.00     0.039 A 
HETATM    4  C   UNL     1       8.819  -4.774   0.000  1.00  0.00     0.078 A 
HETATM    5  C   UNL     1       6.221  -4.774   0.000  1.00  0.00     0.042 A 
HETATM    6  C   UNL     1       7.520  -5.524   0.000  1.00  0.00     0.020 A 
HETATM    7  C   UNL     1      10.118  -5.524   0.000  1.00  0.00    -0.007 C 
HETATM    8  N   UNL     1      11.417  -6.274   0.000  1.00  0.00    -0.101 N 
ENDROOT
BRANCH   3   9
HETATM    9  N   UNL     1       4.922  -2.525   0.000  1.00  0.00    -0.234 NA
BRANCH   9  10
HETATM   10  C   UNL     1       4.922  -1.024   0.000  1.00  0.00     0.184 A 
HETATM   11  N   UNL     1       6.221  -0.275   0.000  1.00  0.00    -0.201 NA
HETATM   12  C   UNL     1       6.221   1.226   0.000  1.00  0.00     0.188 A 
HETATM   13  N   UNL     1       4.922   1.976   0.000  1.00  0.00    -0.240 NA
HETATM   14  C   UNL     1       3.623   1.226   0.000  1.00  0.00     0.181 A 
HETATM   15  C   UNL     1       3.623  -0.275   0.000  1.00  0.00     0.132 A 
BRANCH  12  16
HETATM   16  S   UNL     1       7.520   1.976   0.000  1.00  0.00    -0.075 SA
HETATM   17  C   UNL     1       7.520   3.475   0.000  1.00  0.00     0.077 C 
ENDBRANCH  12  16
BRANCH  15  18
HETATM   18  O   UNL     1       2.324  -1.024   0.000  1.00  0.00    -0.327 OA
HETATM   19  C   UNL     1       2.324  -2.525   0.000  1.00  0.00     0.181 C 
ENDBRANCH  15  18
ENDBRANCH   9  10
ENDBRANCH   3   9
TORSDOF 4
