REMARK  3 active torsions:
REMARK  status: ('A' for Active; 'I' for Inactive)
REMARK    1  A    between atoms: C_5  and  N_9 
REMARK    2  A    between atoms: N_9  and  C_10 
REMARK    3  A    between atoms: C_10  and  C_11 
ROOT
HETATM    1 CL   UNL     1       0.750   3.750   0.000  1.00  0.00    -0.061 Cl
HETATM    2  N   UNL     1       2.049   1.500   0.000  1.00  0.00    -0.232 NA
HETATM    3  N   UNL     1       4.647   1.500   0.000  1.00  0.00    -0.225 NA
HETATM    4  C   UNL     1       3.348   3.750   0.000  1.00  0.00     0.133 A 
HETATM    5  C   UNL     1       4.647   3.000   0.000  1.00  0.00     0.171 A 
HETATM    6  C   UNL     1       2.049   3.000   0.000  1.00  0.00     0.151 A 
HETATM    7  C   UNL     1       3.348   0.750   0.000  1.00  0.00     0.253 A 
HETATM    8  N   UNL     1       3.348   5.250   0.000  1.00  0.00    -0.095 NA
ENDROOT
BRANCH   5   9
HETATM    9  N   UNL     1       5.946   3.750   0.000  1.00  0.00    -0.249 NA
BRANCH   9  10
HETATM   10  C   UNL     1       7.245   3.000   0.000  1.00  0.00     0.163 C 
BRANCH  10  11
HETATM   11  C   UNL     1       8.544   3.750   0.000  1.00  0.00     0.209 C 
HETATM   12  O   UNL     1       9.843   3.000   0.000  1.00  0.00    -0.218 OA
ENDBRANCH  10  11
ENDBRANCH   9  10
ENDBRANCH   5   9
TORSDOF 3
