REMARK  7 active torsions:
REMARK  status: ('A' for Active; 'I' for Inactive)
REMARK    1  A    between atoms: C_2  and  C_8 
REMARK    2  A    between atoms: C_2  and  C_20 
REMARK    3  A    between atoms: C_5  and  C_6 
REMARK    4  A    between atoms: C_8  and  O_9 
REMARK    5  A    between atoms: O_9  and  C_10 
REMARK    6  A    between atoms: C_10  and  C_12 
REMARK    7  A    between atoms: C_19  and  C_20 
ROOT
HETATM    1  C   UNL     1      -0.128  -8.715   0.000  1.00  0.00     0.079 A 
HETATM    2  C   UNL     1       0.622 -10.014   0.000  1.00  0.00     0.158 A 
HETATM    3  C   UNL     1      -0.878 -10.014   0.000  1.00  0.00     0.056 A 
HETATM    4  O   UNL     1       1.921 -10.764   0.000  1.00  0.00    -0.223 OA
ENDROOT
BRANCH   1   5
HETATM    5  C   UNL     1       0.785  -7.525   0.000  1.00  0.00     0.155 C 
BRANCH   5   6
HETATM    6  O   UNL     1       2.272  -7.721   0.000  1.00  0.00    -0.309 OA
BRANCH   6   7
HETATM    7  C   UNL     1       3.185  -6.531   0.000  1.00  0.00     0.220 C 
HETATM    8  O   UNL     1       4.672  -6.727   0.000  1.00  0.00    -0.164 OA
BRANCH   7   9
HETATM    9  C   UNL     1       2.611  -5.145   0.000  1.00  0.00     0.005 A 
HETATM   10  C   UNL     1       1.124  -4.949   0.000  1.00  0.00     0.026 A 
HETATM   11  C   UNL     1       0.550  -3.563   0.000  1.00  0.00     0.004 A 
HETATM   12  C   UNL     1       1.463  -2.373   0.000  1.00  0.00     0.001 A 
HETATM   13  C   UNL     1       2.950  -2.569   0.000  1.00  0.00     0.004 A 
HETATM   14  C   UNL     1       3.524  -3.955   0.000  1.00  0.00     0.026 A 
ENDBRANCH   7   9
ENDBRANCH   6   7
ENDBRANCH   5   6
ENDBRANCH   1   5
BRANCH   1  15
HETATM   15  C   UNL     1      -2.327  -8.126   0.000  1.00  0.00     0.082 C 
HETATM   16  N   UNL     1      -2.327  -7.031   0.000  1.00  0.00    -0.371 N 
HETATM   17  C   UNL     1      -2.327  -9.626   0.000  1.00  0.00     0.066 A 
HETATM   18  C   UNL     1      -2.327  -5.531   0.000  1.00  0.00     0.121 C 
HETATM   19  C   UNL     1      -3.388 -10.687   0.000  1.00  0.00     0.024 A 
HETATM   20  C   UNL     1      -3.388  -9.187   0.000  1.00  0.00     0.041 A 
ENDBRANCH   1  15
TORSDOF 7
