REMARK  4 active torsions:
REMARK  status: ('A' for Active; 'I' for Inactive)
REMARK    1  A    between atoms: N_4  and  C_16 
REMARK    2  A    between atoms: N_4  and  C_25 
REMARK    3  A    between atoms: C_10  and  C_13 
REMARK    4  A    between atoms: C_18  and  C_19 
ROOT
HETATM    1  N   UNL     1      -9.494  -4.021   0.000  1.00  0.00    -0.196 NA
ENDROOT
BRANCH   1   2
HETATM    2  C   UNL     1      -8.068  -4.484   0.000  1.00  0.00     0.192 A 
HETATM    3  S   UNL     1      -7.604  -5.911   0.000  1.00  0.00    -0.069 SA
HETATM    4  C   UNL     1      -6.104  -5.911   0.000  1.00  0.00     0.110 A 
HETATM    5  C   UNL     1      -5.640  -4.484   0.000  1.00  0.00     0.065 A 
HETATM    6  N   UNL     1      -6.854  -3.602   0.000  1.00  0.00    -0.226 NA
BRANCH   5   7
HETATM    7  C   UNL     1      -4.214  -4.021   0.000  1.00  0.00    -0.029 A 
HETATM    8  C   UNL     1      -3.902  -2.553   0.000  1.00  0.00     0.028 A 
HETATM    9  C   UNL     1      -2.475  -2.090   0.000  1.00  0.00     0.033 A 
HETATM   10  C   UNL     1      -1.361  -3.093   0.000  1.00  0.00    -0.009 A 
HETATM   11 BR   UNL     1       0.066  -2.630   0.000  1.00  0.00    -0.058 Br
HETATM   12  C   UNL     1      -1.673  -4.561   0.000  1.00  0.00     0.033 A 
HETATM   13  C   UNL     1      -3.099  -5.024   0.000  1.00  0.00     0.028 A 
ENDBRANCH   5   7
ENDBRANCH   1   2
BRANCH   1  14
HETATM   14  C   UNL     1     -10.609  -5.024   0.000  1.00  0.00     0.192 A 
HETATM   15  S   UNL     1     -12.076  -4.712   0.000  1.00  0.00    -0.069 SA
HETATM   16  C   UNL     1     -12.826  -6.011   0.000  1.00  0.00     0.110 A 
HETATM   17  C   UNL     1     -11.822  -7.126   0.000  1.00  0.00     0.065 A 
HETATM   18  N   UNL     1     -10.452  -6.516   0.000  1.00  0.00    -0.226 NA
BRANCH  17  19
HETATM   19  C   UNL     1     -12.134  -8.593   0.000  1.00  0.00    -0.029 A 
HETATM   20  C   UNL     1     -11.020  -9.597   0.000  1.00  0.00     0.028 A 
HETATM   21  C   UNL     1     -11.331 -11.064   0.000  1.00  0.00     0.033 A 
HETATM   22  C   UNL     1     -12.758 -11.528   0.000  1.00  0.00    -0.009 A 
HETATM   23 BR   UNL     1     -13.070 -12.995   0.000  1.00  0.00    -0.058 Br
HETATM   24  C   UNL     1     -13.873 -10.524   0.000  1.00  0.00     0.033 A 
HETATM   25  C   UNL     1     -13.561  -9.057   0.000  1.00  0.00     0.028 A 
ENDBRANCH  17  19
ENDBRANCH   1  14
TORSDOF 4
