REMARK  1 active torsions:
REMARK  status: ('A' for Active; 'I' for Inactive)
REMARK    1  A    between atoms: C_2  and  C_12 
ROOT
HETATM    1 CL   UNL     1       1.490  -9.419   0.000  1.00  0.00    -0.087 Cl
HETATM    2  C   UNL     1       1.490  -4.920   0.000  1.00  0.00     0.013 A 
HETATM    3  C   UNL     1       0.191  -5.670   0.000  1.00  0.00    -0.026 A 
HETATM    4  C   UNL     1       2.789  -5.670   0.000  1.00  0.00     0.035 A 
HETATM    5  C   UNL     1      -1.108  -4.920   0.000  1.00  0.00     0.026 A 
HETATM    6  C   UNL     1      -2.407  -5.670   0.000  1.00  0.00     0.005 A 
HETATM    7  C   UNL     1       2.789  -7.170   0.000  1.00  0.00     0.042 A 
HETATM    8  C   UNL     1       0.191  -7.170   0.000  1.00  0.00    -0.020 A 
HETATM    9  C   UNL     1      -2.407  -7.170   0.000  1.00  0.00     0.005 A 
HETATM   10  C   UNL     1       1.490  -7.920   0.000  1.00  0.00     0.032 A 
HETATM   11  C   UNL     1      -1.108  -7.920   0.000  1.00  0.00     0.027 A 
ENDROOT
BRANCH   2  12
HETATM   12  C   UNL     1       1.490  -3.420   0.000  1.00  0.00     0.196 C 
HETATM   13  O   UNL     1       0.191  -2.670   0.000  1.00  0.00    -0.175 OA
HETATM   14  N   UNL     1       2.789  -2.670   0.000  1.00  0.00    -0.071 NA
ENDBRANCH   2  12
TORSDOF 1
