REMARK  0 active torsions:
REMARK  status: ('A' for Active; 'I' for Inactive)
ROOT
HETATM    1  O   UNL     1      -7.520   3.475   0.000  1.00  0.00    -0.163 OA
HETATM    2  O   UNL     1      -6.221   1.226   0.000  1.00  0.00    -0.284 OA
HETATM    3  C   UNL     1      -7.520   1.976   0.000  1.00  0.00     0.228 A 
HETATM    4  C   UNL     1      -8.819   1.226   0.000  1.00  0.00     0.023 A 
HETATM    5  C   UNL     1     -10.118   1.976   0.000  1.00  0.00     0.030 A 
HETATM    6  C   UNL     1     -11.417   1.226   0.000  1.00  0.00     0.005 A 
HETATM    7  C   UNL     1      -8.819  -0.275   0.000  1.00  0.00    -0.021 A 
HETATM    8  C   UNL     1     -11.417  -0.275   0.000  1.00  0.00     0.005 A 
HETATM    9  C   UNL     1     -10.118  -1.024   0.000  1.00  0.00     0.026 A 
HETATM   10  C   UNL     1      -7.520  -1.024   0.000  1.00  0.00     0.014 A 
HETATM   11  C   UNL     1      -6.221  -0.275   0.000  1.00  0.00     0.097 A 
HETATM   12  C   UNL     1      -4.922  -1.024   0.000  1.00  0.00    -0.004 A 
HETATM   13  C   UNL     1      -3.623  -0.275   0.000  1.00  0.00     0.028 A 
HETATM   14  C   UNL     1      -2.324  -1.024   0.000  1.00  0.00     0.005 A 
HETATM   15  C   UNL     1      -2.324  -2.525   0.000  1.00  0.00     0.005 A 
HETATM   16  C   UNL     1      -4.922  -2.525   0.000  1.00  0.00    -0.029 A 
HETATM   17  C   UNL     1      -7.520  -2.525   0.000  1.00  0.00    -0.025 A 
HETATM   18  C   UNL     1      -3.623  -3.275   0.000  1.00  0.00     0.026 A 
HETATM   19  C   UNL     1      -6.221  -3.275   0.000  1.00  0.00    -0.030 A 
HETATM   20  C   UNL     1      -8.819  -3.275   0.000  1.00  0.00     0.026 A 
HETATM   21  C   UNL     1      -6.221  -4.774   0.000  1.00  0.00     0.026 A 
HETATM   22  C   UNL     1      -8.819  -4.774   0.000  1.00  0.00     0.005 A 
HETATM   23  C   UNL     1      -7.520  -5.524   0.000  1.00  0.00     0.005 A 
ENDROOT
TORSDOF 0
