REMARK  4 active torsions:
REMARK  status: ('A' for Active; 'I' for Inactive)
REMARK    1  A    between atoms: O_3  and  C_10 
REMARK    2  A    between atoms: O_3  and  C_12 
REMARK       I    between atoms: C_5  and  N_7 
REMARK    3  A    between atoms: N_7  and  C_8 
REMARK    4  A    between atoms: C_12  and  C_13 
ROOT
HETATM    1  C   UNL     1       6.274  -1.024   0.000  1.00  0.00     0.066 A 
HETATM    2  C   UNL     1       7.774  -1.024   0.000  1.00  0.00     0.071 A 
HETATM    3  C   UNL     1       5.524   0.275   0.000  1.00  0.00     0.203 A 
HETATM    4  O   UNL     1       6.274   1.574   0.000  1.00  0.00    -0.170 OA
HETATM    5  C   UNL     1       8.524   0.275   0.000  1.00  0.00     0.216 A 
HETATM    6  O   UNL     1       7.774   1.574   0.000  1.00  0.00    -0.165 OA
ENDROOT
BRANCH   3   7
HETATM    7  N   UNL     1       4.024   0.275   0.000  1.00  0.00    -0.182 NA
HETATM    8  C   UNL     1       3.275   1.574   0.000  1.00  0.00     0.288 C 
HETATM    9  N   UNL     1       1.774   1.573   0.000  1.00  0.00    -0.052 NA
HETATM   10  O   UNL     1       4.024   2.873   0.000  1.00  0.00    -0.153 OA
ENDBRANCH   3   7
BRANCH   5  11
HETATM   11  O   UNL     1      10.024   0.275   0.000  1.00  0.00    -0.310 OA
BRANCH  11  12
HETATM   12  C   UNL     1      10.774  -1.024   0.000  1.00  0.00     0.151 C 
BRANCH  12  13
HETATM   13  C   UNL     1      10.024  -2.324   0.000  1.00  0.00     0.033 C 
HETATM   14  C   UNL     1      10.774  -3.623   0.000  1.00  0.00     0.003 C 
ENDBRANCH  12  13
ENDBRANCH  11  12
ENDBRANCH   5  11
TORSDOF 4
