REMARK  1 active torsions:
REMARK  status: ('A' for Active; 'I' for Inactive)
REMARK    1  A    between atoms: C_18  and  S_19 
ROOT
HETATM    1 CL   UNL     1      -3.623  -7.774   0.000  1.00  0.00    -0.061 Cl
HETATM    2  N   UNL     1      -2.324 -10.024   0.000  1.00  0.00    -0.209 NA
HETATM    3 BR   UNL     1      -1.024  -6.274   0.000  1.00  0.00    -0.060 Br
HETATM    4  N   UNL     1       0.275 -10.024   0.000  1.00  0.00    -0.202 NA
HETATM    5  N   UNL     1       0.275  -4.024   0.000  1.00  0.00    -0.312 N 
HETATM    6  O   UNL     1       4.172  -6.274   0.000  1.00  0.00    -0.169 OA
HETATM    7  H   UNL     1      -1.024  -3.275   0.000  1.00  0.00     0.170 HD
HETATM    8  N   UNL     1       2.873  -4.024   0.000  1.00  0.00    -0.296 N 
HETATM    9  H   UNL     1       4.172  -3.275   0.000  1.00  0.00     0.171 HD
HETATM   10  O   UNL     1       1.574  -1.774   0.000  1.00  0.00    -0.151 OA
HETATM   11  C   UNL     1       1.574  -3.275   0.000  1.00  0.00     0.258 A 
HETATM   12  C   UNL     1       0.275  -5.524   0.000  1.00  0.00     0.110 A 
HETATM   13  C   UNL     1       1.574  -6.274   0.000  1.00  0.00     0.146 A 
HETATM   14  C   UNL     1       2.873  -5.524   0.000  1.00  0.00     0.213 A 
HETATM   15  C   UNL     1      -1.024  -7.774   0.000  1.00  0.00     0.095 A 
HETATM   16  C   UNL     1       0.275  -8.524   0.000  1.00  0.00     0.173 A 
HETATM   17  C   UNL     1      -2.324  -8.524   0.000  1.00  0.00     0.149 A 
HETATM   18  C   UNL     1      -1.024 -10.774   0.000  1.00  0.00     0.192 A 
HETATM   19  N   UNL     1       1.574  -7.774   0.000  1.00  0.00    -0.221 NA
ENDROOT
BRANCH  18  20
HETATM   20  S   UNL     1      -1.024 -12.274   0.000  1.00  0.00    -0.075 SA
HETATM   21  C   UNL     1      -2.324 -13.024   0.000  1.00  0.00     0.077 C 
ENDBRANCH  18  20
TORSDOF 1
