REMARK  4 active torsions:
REMARK  status: ('A' for Active; 'I' for Inactive)
REMARK    1  A    between atoms: C_5  and  C_18 
REMARK    2  A    between atoms: C_7  and  O_23 
REMARK    3  A    between atoms: C_18  and  O_19 
REMARK    4  A    between atoms: O_19  and  C_20 
ROOT
HETATM    1  O   UNL     1       1.711   7.231   0.000  1.00  0.00    -0.189 OA
HETATM    2  O   UNL     1       3.565   1.525   0.000  1.00  0.00    -0.189 OA
HETATM    3  N   UNL     1       5.605   4.066   0.000  1.00  0.00    -0.322 N 
HETATM    4  N   UNL     1       9.036   5.181   0.000  1.00  0.00    -0.361 N 
HETATM    5  C   UNL     1       4.855   6.374   0.000  1.00  0.00     0.035 A 
HETATM    6  C   UNL     1       3.642   5.492   0.000  1.00  0.00     0.043 A 
HETATM    7  C   UNL     1       6.069   5.492   0.000  1.00  0.00     0.199 A 
HETATM    8  C   UNL     1       2.175   5.804   0.000  1.00  0.00     0.145 A 
HETATM    9  C   UNL     1       1.171   4.690   0.000  1.00  0.00     0.093 A 
HETATM   10  C   UNL     1       7.569   5.492   0.000  1.00  0.00     0.149 A 
HETATM   11  C   UNL     1       8.032   4.066   0.000  1.00  0.00     0.124 A 
HETATM   12  C   UNL     1       4.105   4.066   0.000  1.00  0.00     0.085 A 
HETATM   13  C   UNL     1       1.634   3.263   0.000  1.00  0.00     0.020 A 
HETATM   14  C   UNL     1       6.819   3.184   0.000  1.00  0.00     0.128 A 
HETATM   15  C   UNL     1       3.102   2.951   0.000  1.00  0.00     0.143 A 
HETATM   16  N   UNL     1      -0.296   5.002   0.000  1.00  0.00    -0.099 NA
HETATM   17  C   UNL     1       0.631   2.148   0.000  1.00  0.00     0.034 C 
HETATM   18  C   UNL     1      10.463   5.644   0.000  1.00  0.00     0.121 C 
ENDROOT
BRANCH   5  19
HETATM   19  C   UNL     1       4.855   7.874   0.000  1.00  0.00     0.174 C 
BRANCH  19  20
HETATM   20  O   UNL     1       3.446   8.387   0.000  1.00  0.00    -0.295 OA
BRANCH  20  21
HETATM   21  C   UNL     1       3.185   9.864   0.000  1.00  0.00     0.581 C 
HETATM   22  O   UNL     1       1.776  10.377   0.000  1.00  0.00    -0.151 OA
HETATM   23  N   UNL     1       4.334  10.829   0.000  1.00  0.00     0.688 N 
ENDBRANCH  20  21
ENDBRANCH  19  20
ENDBRANCH   5  19
BRANCH   7  24
HETATM   24  O   UNL     1       6.532   6.919   0.000  1.00  0.00    -0.332 OA
HETATM   25  C   UNL     1       8.000   7.231   0.000  1.00  0.00     0.177 C 
ENDBRANCH   7  24
TORSDOF 4
