REMARK  3 active torsions:
REMARK  status: ('A' for Active; 'I' for Inactive)
REMARK    1  A    between atoms: C_5  and  N_8 
REMARK    2  A    between atoms: C_6  and  N_11 
REMARK    3  A    between atoms: C_7  and  S_13 
ROOT
HETATM    1  O   UNL     1      -0.375   6.649   0.000  1.00  0.00    -0.169 OA
HETATM    2  N   UNL     1       2.223   6.649   0.000  1.00  0.00    -0.284 N 
HETATM    3  N   UNL     1       3.522   4.399   0.000  1.00  0.00    -0.202 NA
HETATM    4  C   UNL     1       0.924   5.899   0.000  1.00  0.00     0.219 A 
HETATM    5  C   UNL     1       0.924   4.399   0.000  1.00  0.00     0.188 A 
HETATM    6  C   UNL     1       2.223   3.650   0.000  1.00  0.00     0.184 A 
HETATM    7  C   UNL     1       3.522   5.899   0.000  1.00  0.00     0.174 A 
HETATM    8  C   UNL     1       2.223   8.149   0.000  1.00  0.00     0.135 C 
ENDROOT
BRANCH   5   9
HETATM    9  N   UNL     1      -0.375   3.650   0.000  1.00  0.00    -0.089 NA
HETATM   10  O   UNL     1      -1.674   4.399   0.000  1.00  0.00    -0.060 OA
ENDBRANCH   5   9
BRANCH   6  11
HETATM   11  N   UNL     1       2.223   2.150   0.000  1.00  0.00    -0.249 NA
HETATM   12  C   UNL     1       0.924   1.399   0.000  1.00  0.00     0.154 C 
ENDBRANCH   6  11
BRANCH   7  13
HETATM   13  S   UNL     1       4.821   6.649   0.000  1.00  0.00    -0.076 SA
HETATM   14  C   UNL     1       6.120   5.899   0.000  1.00  0.00     0.077 C 
ENDBRANCH   7  13
TORSDOF 3
