REMARK  1 active torsions:
REMARK  status: ('A' for Active; 'I' for Inactive)
REMARK    1  A    between atoms: C_8  and  C_11 
REMARK       I    between atoms: C_11  and  N_13 
ROOT
HETATM    1  O   UNL     1      -6.120  -7.399   0.000  1.00  0.00    -0.149 OA
HETATM    2  H   UNL     1      -6.120  -4.399   0.000  1.00  0.00     0.171 HD
HETATM    3  N   UNL     1      -4.821  -5.149   0.000  1.00  0.00    -0.295 N 
HETATM    4  N   UNL     1      -3.522  -7.399   0.000  1.00  0.00    -0.212 N 
HETATM    5  O   UNL     1      -3.522  -2.900   0.000  1.00  0.00    -0.169 OA
HETATM    6  N   UNL     1      -2.223  -6.649   0.000  1.00  0.00    -0.159 NA
HETATM    7  C   UNL     1      -3.522  -4.399   0.000  1.00  0.00     0.217 A 
HETATM    8  C   UNL     1      -2.223  -5.149   0.000  1.00  0.00     0.186 A 
HETATM    9  C   UNL     1      -4.821  -6.649   0.000  1.00  0.00     0.277 A 
HETATM   10  C   UNL     1      -3.522  -8.899   0.000  1.00  0.00     0.158 C 
ENDROOT
BRANCH   8  11
HETATM   11  C   UNL     1      -0.924  -4.399   0.000  1.00  0.00     0.232 C 
HETATM   12  O   UNL     1       0.375  -5.149   0.000  1.00  0.00    -0.168 OA
HETATM   13  N   UNL     1      -0.924  -2.900   0.000  1.00  0.00    -0.243 NA
HETATM   14  C   UNL     1       0.375  -2.150   0.000  1.00  0.00     0.154 C 
ENDBRANCH   8  11
TORSDOF 1
