REMARK  2 active torsions:
REMARK  status: ('A' for Active; 'I' for Inactive)
REMARK    1  A    between atoms: C_3  and  N_11 
REMARK    2  A    between atoms: C_7  and  N_14 
ROOT
HETATM    1  N   UNL     1      -3.552   1.185   0.000  1.00  0.00    -0.269 NA
HETATM    2  C   UNL     1      -6.150   1.185   0.000  1.00  0.00     0.166 A 
HETATM    3  C   UNL     1      -7.449   0.435   0.000  1.00  0.00     0.137 A 
HETATM    4  C   UNL     1      -4.851   0.435   0.000  1.00  0.00     0.100 A 
HETATM    5  C   UNL     1      -4.851  -1.065   0.000  1.00  0.00     0.015 A 
HETATM    6  C   UNL     1      -7.449  -1.065   0.000  1.00  0.00     0.102 A 
HETATM    7  C   UNL     1      -6.150  -1.815   0.000  1.00  0.00     0.108 A 
HETATM    8  C   UNL     1      -3.552  -1.815   0.000  1.00  0.00     0.031 A 
HETATM    9  C   UNL     1      -2.253   0.435   0.000  1.00  0.00     0.126 A 
HETATM   10  C   UNL     1      -2.253  -1.065   0.000  1.00  0.00     0.031 A 
HETATM   11  O   UNL     1      -6.150   2.685   0.000  1.00  0.00    -0.187 OA
ENDROOT
BRANCH   3  12
HETATM   12  N   UNL     1      -8.748   1.185   0.000  1.00  0.00    -0.116 N 
HETATM   13  O   UNL     1     -10.047   0.435   0.000  1.00  0.00    -0.532 OA
HETATM   14  O   UNL     1      -8.748   2.685   0.000  1.00  0.00    -0.532 OA
ENDBRANCH   3  12
BRANCH   7  15
HETATM   15  N   UNL     1      -6.150  -3.315   0.000  1.00  0.00    -0.118 N 
HETATM   16  O   UNL     1      -7.449  -4.065   0.000  1.00  0.00    -0.532 OA
HETATM   17  O   UNL     1      -4.851  -4.065   0.000  1.00  0.00    -0.532 OA
ENDBRANCH   7  15
TORSDOF 2
