REMARK  2 active torsions:
REMARK  status: ('A' for Active; 'I' for Inactive)
REMARK    1  A    between atoms: S_3  and  C_6 
REMARK    2  A    between atoms: S_3  and  C_10 
ROOT
HETATM    1  N   UNL     1      -2.223   5.149   0.000  1.00  0.00    -0.261 NA
HETATM    2  N   UNL     1      -2.223   2.150   0.000  1.00  0.00    -0.271 NA
HETATM    3  C   UNL     1      -0.924   4.399   0.000  1.00  0.00     0.115 A 
HETATM    4  C   UNL     1      -0.924   2.900   0.000  1.00  0.00     0.077 A 
HETATM    5  C   UNL     1      -3.522   4.399   0.000  1.00  0.00     0.152 A 
HETATM    6  C   UNL     1      -3.522   2.900   0.000  1.00  0.00     0.152 A 
HETATM    7  C   UNL     1       0.375   2.150   0.000  1.00  0.00     0.054 C 
ENDROOT
BRANCH   3   8
HETATM    8  S   UNL     1       0.375   5.149   0.000  1.00  0.00    -0.095 SA
BRANCH   8   9
HETATM    9  C   UNL     1       0.375   6.649   0.000  1.00  0.00     0.053 A 
HETATM   10  C   UNL     1      -0.924   7.399   0.000  1.00  0.00     0.011 A 
HETATM   11  C   UNL     1      -0.924   8.899   0.000  1.00  0.00     0.001 A 
HETATM   12  C   UNL     1       0.375   9.649   0.000  1.00  0.00     0.000 A 
HETATM   13  C   UNL     1       1.674   8.899   0.000  1.00  0.00     0.001 A 
HETATM   14  C   UNL     1       1.674   7.399   0.000  1.00  0.00     0.011 A 
ENDBRANCH   8   9
ENDBRANCH   3   8
TORSDOF 2
