REMARK  6 active torsions:
REMARK  status: ('A' for Active; 'I' for Inactive)
REMARK    1  A    between atoms: C_2  and  C_7 
REMARK    2  A    between atoms: O_5  and  C_7 
REMARK    3  A    between atoms: O_5  and  C_10 
REMARK    4  A    between atoms: N_8  and  C_13 
REMARK    5  A    between atoms: C_13  and  C_14 
REMARK    6  A    between atoms: C_14  and  C_15 
ROOT
HETATM    1  C   UNL     1       0.591   1.691   0.000  1.00  0.00     0.104 A 
HETATM    2  C   UNL     1      -0.714   0.951   0.000  1.00  0.00     0.046 A 
HETATM    3  C   UNL     1       1.698   0.679   0.000  1.00  0.00     0.175 A 
HETATM    4  C   UNL     1      -0.413  -0.519   0.000  1.00  0.00     0.039 A 
HETATM    5  N   UNL     1       1.078  -0.687   0.000  1.00  0.00    -0.314 N 
HETATM    6  O   UNL     1       3.168   0.980   0.000  1.00  0.00    -0.175 OA
HETATM    7  C   UNL     1      -1.425  -1.626   0.000  1.00  0.00     0.050 C 
ENDROOT
BRANCH   2   8
HETATM    8  C   UNL     1      -2.079   1.571   0.000  1.00  0.00     0.226 C 
HETATM    9  O   UNL     1      -2.225   3.064   0.000  1.00  0.00    -0.164 OA
BRANCH   8  10
HETATM   10  O   UNL     1      -3.299   0.699   0.000  1.00  0.00    -0.309 OA
BRANCH  10  11
HETATM   11  C   UNL     1      -4.665   1.320   0.000  1.00  0.00     0.151 C 
HETATM   12  C   UNL     1      -4.810   2.813   0.000  1.00  0.00     0.035 C 
ENDBRANCH  10  11
ENDBRANCH   8  10
ENDBRANCH   2   8
BRANCH   5  13
HETATM   13  C   UNL     1       1.818  -1.992   0.000  1.00  0.00     0.107 C 
BRANCH  13  14
HETATM   14  C   UNL     1       3.297  -1.742   0.000  1.00  0.00     0.025 C 
BRANCH  14  15
HETATM   15  C   UNL     1       4.252  -2.899   0.000  1.00  0.00     0.002 C 
HETATM   16  C   UNL     1       3.728  -4.304   0.000  1.00  0.00     0.000 C 
ENDBRANCH  14  15
ENDBRANCH  13  14
ENDBRANCH   5  13
TORSDOF 6
