REMARK  4 active torsions:
REMARK  status: ('A' for Active; 'I' for Inactive)
REMARK    1  A    between atoms: C_3  and  O_16 
REMARK    2  A    between atoms: C_6  and  C_13 
REMARK    3  A    between atoms: C_13  and  C_14 
REMARK    4  A    between atoms: C_14  and  O_16 
ROOT
HETATM    1  C   UNL     1       3.642   3.490   0.000  1.00  0.00     0.095 C 
ENDROOT
BRANCH   1   2
HETATM    2  C   UNL     1       2.165   3.750   0.000  1.00  0.00     0.132 A 
HETATM    3  C   UNL     1       0.866   4.500   0.000  1.00  0.00     0.031 A 
HETATM    4  C   UNL     1      -0.433   3.750   0.000  1.00  0.00     0.003 A 
HETATM    5  C   UNL     1      -0.433   2.250   0.000  1.00  0.00     0.000 A 
HETATM    6  C   UNL     1       0.866   1.500   0.000  1.00  0.00     0.003 A 
HETATM    7  C   UNL     1       2.165   2.250   0.000  1.00  0.00     0.031 A 
HETATM    8  O   UNL     1       2.678   5.160   0.000  1.00  0.00    -0.226 OA
ENDBRANCH   1   2
BRANCH   1   9
HETATM    9  C   UNL     1       4.606   4.639   0.000  1.00  0.00     0.272 C 
HETATM   10  O   UNL     1       6.083   4.378   0.000  1.00  0.00    -0.190 OA
BRANCH   9  11
HETATM   11  O   UNL     1       4.093   6.048   0.000  1.00  0.00    -0.331 OA
BRANCH  11  12
HETATM   12  C   UNL     1       5.058   7.197   0.000  1.00  0.00     0.118 A 
HETATM   13  C   UNL     1       4.695   8.653   0.000  1.00  0.00     0.030 A 
HETATM   14  C   UNL     1       5.967   9.448   0.000  1.00  0.00     0.003 A 
HETATM   15  C   UNL     1       7.116   8.484   0.000  1.00  0.00     0.003 A 
HETATM   16  C   UNL     1       6.554   7.093   0.000  1.00  0.00     0.030 A 
ENDBRANCH  11  12
ENDBRANCH   9  11
ENDBRANCH   1   9
TORSDOF 4
