REMARK  14 active torsions:
REMARK  status: ('A' for Active; 'I' for Inactive)
REMARK    1  A    between atoms: C_1  and  O_3 
REMARK    2  A    between atoms: O_3  and  C_4 
REMARK    3  A    between atoms: C_4  and  C_6 
REMARK    4  A    between atoms: C_6  and  C_7 
REMARK       I    between atoms: C_7  and  N_9 
REMARK    5  A    between atoms: N_9  and  C_10 
REMARK    6  A    between atoms: C_10  and  C_13 
REMARK    7  A    between atoms: C_13  and  C_14 
REMARK    8  A    between atoms: C_14  and  C_15 
REMARK    9  A    between atoms: C_15  and  C_16 
REMARK   10  A    between atoms: C_16  and  C_17 
REMARK   11  A    between atoms: C_21  and  C_23 
REMARK   12  A    between atoms: C_23  and  C_24 
REMARK   13  A    between atoms: C_24  and  O_26 
REMARK   14  A    between atoms: O_26  and  C_27 
ROOT
HETATM    1  C   UNL     1      -8.250  -3.549   0.000  1.00  0.00     0.002 C 
ENDROOT
BRANCH   1   2
HETATM    2  C   UNL     1      -9.000  -4.848   0.000  1.00  0.00     0.022 C 
BRANCH   2   3
HETATM    3  C   UNL     1     -10.500  -4.848   0.000  1.00  0.00     0.087 C 
HETATM    4  C   UNL     1     -12.000  -4.848   0.000  1.00  0.00     0.025 C 
HETATM    5  C   UNL     1     -10.500  -6.348   0.000  1.00  0.00     0.025 C 
BRANCH   3   6
HETATM    6  N   UNL     1     -10.500  -3.348   0.000  1.00  0.00    -0.254 NA
HETATM    7  C   UNL     1     -11.799  -2.598   0.000  1.00  0.00     0.190 C 
HETATM    8  O   UNL     1     -11.799  -1.098   0.000  1.00  0.00    -0.174 OA
BRANCH   7   9
HETATM    9  C   UNL     1     -13.098  -3.348   0.000  1.00  0.00     0.138 C 
BRANCH   9  10
HETATM   10  C   UNL     1     -14.397  -2.598   0.000  1.00  0.00     0.278 C 
HETATM   11  O   UNL     1     -14.397  -1.098   0.000  1.00  0.00    -0.190 OA
BRANCH  10  12
HETATM   12  O   UNL     1     -15.696  -3.348   0.000  1.00  0.00    -0.329 OA
BRANCH  12  13
HETATM   13  C   UNL     1     -16.995  -2.598   0.000  1.00  0.00     0.145 C 
HETATM   14  C   UNL     1     -18.294  -3.348   0.000  1.00  0.00     0.035 C 
ENDBRANCH  12  13
ENDBRANCH  10  12
ENDBRANCH   9  10
ENDBRANCH   7   9
ENDBRANCH   3   6
ENDBRANCH   2   3
ENDBRANCH   1   2
BRANCH   1  15
HETATM   15  C   UNL     1      -6.750  -3.549   0.000  1.00  0.00     0.002 C 
BRANCH  15  16
HETATM   16  C   UNL     1      -6.000  -2.250   0.000  1.00  0.00     0.037 C 
BRANCH  16  17
HETATM   17  C   UNL     1      -4.500  -2.250   0.000  1.00  0.00     0.257 A 
HETATM   18  C   UNL     1      -4.500  -3.750   0.000  1.00  0.00     0.178 A 
HETATM   19  O   UNL     1      -3.451  -4.809   0.000  1.00  0.00    -0.325 OA
HETATM   20  C   UNL     1      -2.487  -3.659   0.000  1.00  0.00     0.380 A 
HETATM   21  N   UNL     1      -3.000  -2.250   0.000  1.00  0.00     0.365 N 
HETATM   22  C   UNL     1      -4.500  -0.750   0.000  1.00  0.00     0.039 C 
BRANCH  20  23
HETATM   23  C   UNL     1      -1.010  -3.920   0.000  1.00  0.00     0.132 C 
BRANCH  23  24
HETATM   24  C   UNL     1      -0.046  -2.771   0.000  1.00  0.00     0.274 C 
HETATM   25  O   UNL     1      -0.559  -1.361   0.000  1.00  0.00    -0.190 OA
BRANCH  24  26
HETATM   26  O   UNL     1       1.432  -3.031   0.000  1.00  0.00    -0.329 OA
BRANCH  26  27
HETATM   27  C   UNL     1       2.396  -1.882   0.000  1.00  0.00     0.145 C 
HETATM   28  C   UNL     1       1.883  -0.473   0.000  1.00  0.00     0.035 C 
ENDBRANCH  26  27
ENDBRANCH  24  26
ENDBRANCH  23  24
ENDBRANCH  20  23
ENDBRANCH  16  17
ENDBRANCH  15  16
ENDBRANCH   1  15
TORSDOF 14
