REMARK  6 active torsions:
REMARK  status: ('A' for Active; 'I' for Inactive)
REMARK    1  A    between atoms: O_1  and  C_24 
REMARK    2  A    between atoms: O_1  and  C_26 
REMARK    3  A    between atoms: C_5  and  N_23 
REMARK    4  A    between atoms: C_11  and  N_20 
REMARK    5  A    between atoms: O_14  and  C_15 
REMARK    6  A    between atoms: O_14  and  C_18 
REMARK       I    between atoms: C_18  and  N_20 
REMARK       I    between atoms: N_23  and  C_24 
ROOT
HETATM    1  C   UNL     1      -6.120  -7.399   0.000  1.00  0.00     0.031 A 
HETATM    2  C   UNL     1      -6.120  -8.899   0.000  1.00  0.00    -0.034 A 
HETATM    3  C   UNL     1      -4.821  -6.649   0.000  1.00  0.00     0.046 A 
HETATM    4  C   UNL     1      -3.522  -7.399   0.000  1.00  0.00     0.045 A 
HETATM    5  C   UNL     1      -4.821  -9.649   0.000  1.00  0.00    -0.043 A 
HETATM    6  C   UNL     1      -7.419  -9.649   0.000  1.00  0.00    -0.034 A 
HETATM    7  C   UNL     1      -8.718  -8.899   0.000  1.00  0.00     0.031 A 
HETATM    8  C   UNL     1     -10.017  -9.649   0.000  1.00  0.00     0.046 A 
HETATM    9  C   UNL     1      -7.419 -11.149   0.000  1.00  0.00    -0.043 A 
HETATM   10  C   UNL     1     -10.017 -11.149   0.000  1.00  0.00     0.045 A 
HETATM   11  C   UNL     1      -3.522  -8.899   0.000  1.00  0.00     0.063 A 
HETATM   12  C   UNL     1      -8.718 -11.899   0.000  1.00  0.00     0.063 A 
HETATM   13  C   UNL     1      -6.120 -11.899   0.000  1.00  0.00     0.026 A 
HETATM   14  C   UNL     1      -4.821 -11.149   0.000  1.00  0.00     0.026 A 
ENDROOT
BRANCH   4  15
HETATM   15  N   UNL     1      -2.223  -6.649   0.000  1.00  0.00    -0.207 NA
HETATM   16  C   UNL     1      -2.223  -5.149   0.000  1.00  0.00     0.318 C 
HETATM   17  O   UNL     1      -3.522  -4.399   0.000  1.00  0.00    -0.141 OA
BRANCH  16  18
HETATM   18  O   UNL     1      -0.924  -4.399   0.000  1.00  0.00    -0.297 OA
BRANCH  18  19
HETATM   19  C   UNL     1      -0.924  -2.900   0.000  1.00  0.00     0.125 C 
HETATM   20  C   UNL     1      -2.223  -2.150   0.000  1.00  0.00     0.033 C 
HETATM   21  C   UNL     1       0.375  -2.150   0.000  1.00  0.00     0.033 C 
ENDBRANCH  18  19
ENDBRANCH  16  18
ENDBRANCH   4  15
BRANCH  10  22
HETATM   22  N   UNL     1     -11.316 -11.899   0.000  1.00  0.00    -0.207 NA
HETATM   23  C   UNL     1     -12.615 -11.149   0.000  1.00  0.00     0.318 C 
HETATM   24  O   UNL     1     -12.615  -9.649   0.000  1.00  0.00    -0.141 OA
BRANCH  23  25
HETATM   25  O   UNL     1     -13.914 -11.900   0.000  1.00  0.00    -0.297 OA
BRANCH  25  26
HETATM   26  C   UNL     1     -15.213 -11.150   0.000  1.00  0.00     0.125 C 
HETATM   27  C   UNL     1     -16.512 -11.900   0.000  1.00  0.00     0.033 C 
HETATM   28  C   UNL     1     -15.213  -9.650   0.000  1.00  0.00     0.033 C 
ENDBRANCH  25  26
ENDBRANCH  23  25
ENDBRANCH  10  22
TORSDOF 6
