REMARK  4 active torsions:
REMARK  status: ('A' for Active; 'I' for Inactive)
REMARK    1  A    between atoms: C_2  and  C_13 
REMARK    2  A    between atoms: C_5  and  C_12 
REMARK    3  A    between atoms: C_7  and  C_12 
REMARK    4  A    between atoms: C_13  and  C_14 
ROOT
HETATM    1  C   UNL     1     -11.142  -3.750   0.000  1.00  0.00     0.154 C 
HETATM    2  C   UNL     1     -11.142  -2.250   0.000  1.00  0.00     0.008 C 
HETATM    3  N   UNL     1     -11.142  -0.750   0.000  1.00  0.00    -0.100 N 
HETATM    4  C   UNL     1     -12.441  -4.500   0.000  1.00  0.00     0.008 C 
HETATM    5  N   UNL     1     -13.740  -5.250   0.000  1.00  0.00    -0.100 N 
ENDROOT
BRANCH   1   6
HETATM    6  C   UNL     1      -9.843  -4.500   0.000  1.00  0.00     0.028 C 
BRANCH   6   7
HETATM    7  C   UNL     1      -9.843  -6.000   0.000  1.00  0.00     0.002 A 
HETATM    8  C   UNL     1      -8.544  -6.750   0.000  1.00  0.00     0.000 A 
HETATM    9  C   UNL     1      -8.544  -8.250   0.000  1.00  0.00     0.000 A 
HETATM   10  C   UNL     1      -9.843  -9.000   0.000  1.00  0.00     0.002 A 
HETATM   11  C   UNL     1     -11.142  -8.250   0.000  1.00  0.00     0.000 A 
HETATM   12  C   UNL     1     -11.142  -6.750   0.000  1.00  0.00     0.000 A 
BRANCH  10  13
HETATM   13  C   UNL     1      -9.843 -10.500   0.000  1.00  0.00     0.028 C 
BRANCH  13  14
HETATM   14  C   UNL     1     -11.142 -11.250   0.000  1.00  0.00     0.154 C 
HETATM   15  C   UNL     1     -11.142 -12.750   0.000  1.00  0.00     0.008 C 
HETATM   16  N   UNL     1     -11.142 -14.250   0.000  1.00  0.00    -0.100 N 
HETATM   17  C   UNL     1     -12.441 -10.500   0.000  1.00  0.00     0.008 C 
HETATM   18  N   UNL     1     -13.740  -9.750   0.000  1.00  0.00    -0.100 N 
ENDBRANCH  13  14
ENDBRANCH  10  13
ENDBRANCH   6   7
ENDBRANCH   1   6
TORSDOF 4
