REMARK  0 active torsions:
REMARK  status: ('A' for Active; 'I' for Inactive)
ROOT
HETATM    1  N   UNL     1       3.348   0.750   0.000  1.00  0.00    -0.216 NA
HETATM    2  N   UNL     1       5.946   0.750   0.000  1.00  0.00    -0.229 NA
HETATM    3  N   UNL     1       5.946   3.750   0.000  1.00  0.00    -0.250 NA
HETATM    4  C   UNL     1       3.348   3.750   0.000  1.00  0.00     0.057 A 
HETATM    5  C   UNL     1       2.049   3.000   0.000  1.00  0.00     0.067 A 
HETATM    6  C   UNL     1       4.647   3.000   0.000  1.00  0.00     0.095 A 
HETATM    7  C   UNL     1       4.647   1.500   0.000  1.00  0.00     0.176 A 
HETATM    8  C   UNL     1       2.049   1.500   0.000  1.00  0.00     0.130 A 
HETATM    9  C   UNL     1       7.245   3.000   0.000  1.00  0.00     0.073 A 
HETATM   10  C   UNL     1       7.245   1.500   0.000  1.00  0.00     0.075 A 
HETATM   11  N   UNL     1       0.750   0.750   0.000  1.00  0.00    -0.084 NA
HETATM   12  C   UNL     1       8.544   0.750   0.000  1.00  0.00     0.053 C 
HETATM   13  C   UNL     1       8.544   3.750   0.000  1.00  0.00     0.053 C 
ENDROOT
TORSDOF 0
