REMARK  2 active torsions:
REMARK  status: ('A' for Active; 'I' for Inactive)
REMARK    1  A    between atoms: C_1  and  C_5 
REMARK       I    between atoms: C_1  and  N_11 
REMARK    2  A    between atoms: C_3  and  N_11 
ROOT
HETATM    1  C   UNL     1      -5.250  -2.049   0.000  1.00  0.00    -0.001 A 
HETATM    2  C   UNL     1      -6.000  -3.348   0.000  1.00  0.00     0.026 A 
HETATM    3  C   UNL     1      -7.500  -3.348   0.000  1.00  0.00     0.004 A 
HETATM    4  C   UNL     1      -8.250  -2.049   0.000  1.00  0.00     0.001 A 
HETATM    5  C   UNL     1      -7.500  -0.750   0.000  1.00  0.00     0.004 A 
HETATM    6  C   UNL     1      -6.000  -0.750   0.000  1.00  0.00     0.026 A 
ENDROOT
BRANCH   1   7
HETATM    7  C   UNL     1      -3.750  -2.049   0.000  1.00  0.00     0.206 C 
HETATM    8  O   UNL     1      -3.000  -0.750   0.000  1.00  0.00    -0.170 OA
HETATM    9  N   UNL     1      -3.000  -3.348   0.000  1.00  0.00    -0.196 NA
BRANCH   9  10
HETATM   10  C   UNL     1      -1.500  -3.348   0.000  1.00  0.00     0.209 C 
HETATM   11  S   UNL     1      -0.750  -2.049   0.000  1.00  0.00    -0.042 SA
HETATM   12  N   UNL     1      -0.750  -4.647   0.000  1.00  0.00    -0.068 NA
ENDBRANCH   9  10
ENDBRANCH   1   7
TORSDOF 2
