REMARK  2 active torsions:
REMARK  status: ('A' for Active; 'I' for Inactive)
REMARK    1  A    between atoms: C_3  and  N_11 
REMARK    2  A    between atoms: C_5  and  N_7 
REMARK       I    between atoms: N_7  and  C_8 
REMARK       I    between atoms: N_11  and  C_12 
ROOT
HETATM    1  N   UNL     1       0.275   5.524   0.000  1.00  0.00    -0.230 NA
HETATM    2  N   UNL     1       1.573   7.774   0.000  1.00  0.00    -0.230 NA
HETATM    3  C   UNL     1       2.873   7.024   0.000  1.00  0.00     0.146 A 
HETATM    4  C   UNL     1       2.873   5.524   0.000  1.00  0.00     0.131 A 
HETATM    5  C   UNL     1       1.574   4.774   0.000  1.00  0.00     0.146 A 
HETATM    6  C   UNL     1       0.275   7.024   0.000  1.00  0.00     0.253 A 
ENDROOT
BRANCH   3   7
HETATM    7  N   UNL     1       4.172   7.774   0.000  1.00  0.00    -0.209 NA
HETATM    8  C   UNL     1       5.471   7.024   0.000  1.00  0.00     0.191 C 
HETATM    9  O   UNL     1       6.770   7.774   0.000  1.00  0.00    -0.174 OA
HETATM   10  C   UNL     1       5.471   5.524   0.000  1.00  0.00     0.083 C 
ENDBRANCH   3   7
BRANCH   5  11
HETATM   11  N   UNL     1       1.574   3.275   0.000  1.00  0.00    -0.209 NA
HETATM   12  C   UNL     1       0.275   2.525   0.000  1.00  0.00     0.191 C 
HETATM   13  O   UNL     1      -1.024   3.275   0.000  1.00  0.00    -0.174 OA
HETATM   14  C   UNL     1       0.275   1.024   0.000  1.00  0.00     0.083 C 
ENDBRANCH   5  11
TORSDOF 2
