REMARK  3 active torsions:
REMARK  status: ('A' for Active; 'I' for Inactive)
REMARK    1  A    between atoms: N_7  and  C_11 
REMARK    2  A    between atoms: N_7  and  N_8 
REMARK    3  A    between atoms: N_8  and  C_15 
ROOT
HETATM    1  O   UNL     1      12.831  -8.250   0.000  1.00  0.00    -0.151 OA
HETATM    2  H   UNL     1      10.233  -9.750   0.000  1.00  0.00     0.171 HD
HETATM    3  N   UNL     1      10.233  -8.250   0.000  1.00  0.00    -0.296 N 
HETATM    4  N   UNL     1      11.532  -6.000   0.000  1.00  0.00    -0.269 N 
HETATM    5  O   UNL     1       7.635  -8.250   0.000  1.00  0.00    -0.169 OA
HETATM    6  O   UNL     1      10.233  -3.750   0.000  1.00  0.00    -0.169 OA
HETATM    7  C   UNL     1       8.934  -7.500   0.000  1.00  0.00     0.217 A 
HETATM    8  C   UNL     1       8.934  -6.000   0.000  1.00  0.00     0.186 A 
HETATM    9  C   UNL     1      10.233  -5.250   0.000  1.00  0.00     0.220 A 
HETATM   10  C   UNL     1      11.532  -7.500   0.000  1.00  0.00     0.263 A 
HETATM   11  C   UNL     1      12.831  -5.250   0.000  1.00  0.00     0.136 C 
ENDROOT
BRANCH   8  12
HETATM   12  N   UNL     1       6.790  -4.763   0.000  1.00  0.00    -0.141 NA
BRANCH  12  13
HETATM   13  N   UNL     1       6.790  -3.263   0.000  1.00  0.00    -0.157 NA
BRANCH  13  14
HETATM   14  C   UNL     1       5.492  -2.513   0.000  1.00  0.00     0.059 A 
HETATM   15  C   UNL     1       4.192  -3.263   0.000  1.00  0.00     0.048 A 
HETATM   16  C   UNL     1       2.893  -2.513   0.000  1.00  0.00     0.040 A 
HETATM   17  C   UNL     1       2.893  -1.012   0.000  1.00  0.00     0.014 A 
HETATM   18 CL   UNL     1       1.594  -0.263   0.000  1.00  0.00    -0.092 Cl
HETATM   19  C   UNL     1       4.192  -0.263   0.000  1.00  0.00     0.040 A 
HETATM   20  C   UNL     1       5.492  -1.012   0.000  1.00  0.00     0.048 A 
ENDBRANCH  13  14
ENDBRANCH  12  13
ENDBRANCH   8  12
TORSDOF 3
