REMARK  1 active torsions:
REMARK  status: ('A' for Active; 'I' for Inactive)
REMARK    1  A    between atoms: C_16  and  S_19 
ROOT
HETATM    1  N   UNL     1       1.310  -6.328   0.000  1.00  0.00    -0.296 N 
HETATM    2  N   UNL     1       2.610  -4.078   0.000  1.00  0.00    -0.354 N 
HETATM    3  H   UNL     1       3.909  -3.328   0.000  1.00  0.00     0.162 HD
HETATM    4  S   UNL     1       3.909  -6.328   0.000  1.00  0.00    -0.040 SA
HETATM    5  C   UNL     1       1.310  -3.328   0.000  1.00  0.00     0.068 A 
HETATM    6  C   UNL     1       0.011  -4.078   0.000  1.00  0.00     0.060 A 
HETATM    7  C   UNL     1       0.011  -5.578   0.000  1.00  0.00     0.027 A 
HETATM    8  C   UNL     1       2.610  -5.578   0.000  1.00  0.00     0.179 A 
HETATM    9  C   UNL     1       1.310  -7.828   0.000  1.00  0.00     0.042 A 
HETATM   10  C   UNL     1       2.610  -8.578   0.000  1.00  0.00     0.044 A 
HETATM   11  C   UNL     1       0.011  -8.578   0.000  1.00  0.00    -0.003 A 
HETATM   12  C   UNL     1      -1.288  -7.828   0.000  1.00  0.00    -0.037 A 
HETATM   13  C   UNL     1      -2.587  -8.578   0.000  1.00  0.00     0.042 A 
HETATM   14  C   UNL     1       2.610 -10.078   0.000  1.00  0.00     0.011 A 
HETATM   15  C   UNL     1       0.011 -10.078   0.000  1.00  0.00    -0.043 A 
HETATM   16  C   UNL     1      -2.587 -10.078   0.000  1.00  0.00     0.136 A 
HETATM   17  C   UNL     1       1.310 -10.828   0.000  1.00  0.00     0.022 A 
HETATM   18  C   UNL     1      -1.288 -10.828   0.000  1.00  0.00     0.041 A 
HETATM   19  C   UNL     1      -1.288  -6.328   0.000  1.00  0.00     0.062 A 
HETATM   20  C   UNL     1       0.346  -2.179   0.000  1.00  0.00     0.022 C 
HETATM   21  C   UNL     1       2.275  -2.179   0.000  1.00  0.00     0.022 C 
ENDROOT
BRANCH  16  22
HETATM   22  S   UNL     1      -3.886 -10.828   0.000  1.00  0.00     0.115 S 
HETATM   23  O   UNL     1      -4.636  -9.529   0.000  1.00  0.00    -0.594 OA
HETATM   24  O   UNL     1      -5.185 -11.578   0.000  1.00  0.00    -0.594 OA
HETATM   25  O   UNL     1      -3.136 -12.127   0.000  1.00  0.00    -0.594 OA
ENDBRANCH  16  22
TORSDOF 1
