REMARK  1 active torsions:
REMARK  status: ('A' for Active; 'I' for Inactive)
REMARK    1  A    between atoms: C_8  and  N_26 
ROOT
HETATM    1  C   UNL     1      -4.922  -2.525   0.000  1.00  0.00     0.085 A 
HETATM    2  C   UNL     1      -3.623  -3.275   0.000  1.00  0.00     0.027 A 
HETATM    3  C   UNL     1      -6.221  -3.275   0.000  1.00  0.00     0.060 A 
HETATM    4  C   UNL     1      -3.623  -4.774   0.000  1.00  0.00     0.044 A 
HETATM    5  C   UNL     1      -6.221  -4.774   0.000  1.00  0.00    -0.019 A 
HETATM    6  C   UNL     1      -4.922  -5.524   0.000  1.00  0.00     0.030 A 
HETATM    7  C   UNL     1     -12.155  -5.930   0.000  1.00  0.00     0.030 A 
HETATM    8  C   UNL     1     -11.895  -7.407   0.000  1.00  0.00     0.005 A 
HETATM    9  C   UNL     1     -11.006  -4.966   0.000  1.00  0.00     0.023 A 
HETATM   10  C   UNL     1      -9.597  -5.479   0.000  1.00  0.00     0.001 A 
HETATM   11  C   UNL     1     -10.486  -7.920   0.000  1.00  0.00     0.005 A 
HETATM   12  C   UNL     1      -9.336  -6.956   0.000  1.00  0.00     0.032 A 
HETATM   13  C   UNL     1     -11.267  -3.489   0.000  1.00  0.00     0.211 A 
HETATM   14  O   UNL     1     -12.676  -2.976   0.000  1.00  0.00    -0.169 OA
HETATM   15  N   UNL     1     -10.118  -2.525   0.000  1.00  0.00    -0.196 NA
HETATM   16  C   UNL     1      -8.819  -3.275   0.000  1.00  0.00     0.187 A 
HETATM   17  S   UNL     1      -8.819  -4.774   0.000  1.00  0.00    -0.099 SA
HETATM   18  N   UNL     1      -7.520  -2.525   0.000  1.00  0.00    -0.226 NA
HETATM   19  C   UNL     1      -7.520  -5.524   0.000  1.00  0.00     0.082 A 
ENDROOT
BRANCH   2  20
HETATM   20  N   UNL     1      -2.324  -2.525   0.000  1.00  0.00    -0.294 N 
HETATM   21  C   UNL     1      -2.584  -1.047   0.000  1.00  0.00     0.207 A 
HETATM   22  S   UNL     1      -3.994  -0.534   0.000  1.00  0.00    -0.038 SA
HETATM   23  N   UNL     1      -1.435  -0.083   0.000  1.00  0.00    -0.192 NA
HETATM   24  C   UNL     1      -0.025  -0.596   0.000  1.00  0.00     0.212 A 
HETATM   25  C   UNL     1       0.235  -2.073   0.000  1.00  0.00     0.034 A 
HETATM   26  O   UNL     1       1.124   0.368   0.000  1.00  0.00    -0.169 OA
HETATM   27  C   UNL     1      -0.914  -3.038   0.000  1.00  0.00     0.042 A 
HETATM   28  C   UNL     1       1.645  -2.586   0.000  1.00  0.00     0.031 A 
HETATM   29  C   UNL     1      -0.653  -4.515   0.000  1.00  0.00     0.044 A 
HETATM   30  C   UNL     1       0.756  -5.028   0.000  1.00  0.00     0.007 A 
HETATM   31  C   UNL     1       1.905  -4.064   0.000  1.00  0.00     0.005 A 
ENDBRANCH   2  20
TORSDOF 1
