REMARK  0 active torsions:
REMARK  status: ('A' for Active; 'I' for Inactive)
ROOT
HETATM    1  O   UNL     1       0.499   5.136   0.000  1.00  0.00     0.000 OA
HETATM    2  O   UNL     1       2.822   7.776   0.000  1.00  0.00    -0.174 OA
HETATM    3  N   UNL     1       3.240   5.136   0.000  1.00  0.00    -0.188 N 
HETATM    4  O   UNL     1       2.822   2.495   0.000  1.00  0.00    -0.293 OA
HETATM    5  C   UNL     1       2.359   6.349   0.000  1.00  0.00     0.196 A 
HETATM    6  C   UNL     1       0.932   5.886   0.000  1.00  0.00     0.088 A 
HETATM    7  C   UNL     1      -0.367   6.636   0.000  1.00  0.00     0.012 A 
HETATM    8  C   UNL     1      -1.666   5.886   0.000  1.00  0.00     0.001 A 
HETATM    9  C   UNL     1       0.932   4.386   0.000  1.00  0.00     0.004 A 
HETATM   10  C   UNL     1      -1.666   4.386   0.000  1.00  0.00     0.004 A 
HETATM   11  C   UNL     1      -0.367   3.635   0.000  1.00  0.00     0.026 A 
HETATM   12  C   UNL     1       2.359   3.922   0.000  1.00  0.00     0.177 A 
HETATM   13  C   UNL     1       6.731   3.466   0.000  1.00  0.00     0.049 A 
HETATM   14  C   UNL     1       5.253   3.726   0.000  1.00  0.00     0.098 A 
HETATM   15  C   UNL     1       7.244   2.056   0.000  1.00  0.00     0.007 A 
HETATM   16  C   UNL     1       6.279   0.907   0.000  1.00  0.00     0.007 A 
HETATM   17  C   UNL     1       4.289   2.577   0.000  1.00  0.00     0.094 A 
HETATM   18  C   UNL     1       4.802   1.167   0.000  1.00  0.00     0.053 A 
HETATM   19  N   UNL     1       4.740   5.136   0.000  1.00  0.00    -0.165 NA
ENDROOT
TORSDOF 0
