REMARK  8 active torsions:
REMARK  status: ('A' for Active; 'I' for Inactive)
REMARK    1  A    between atoms: C_1  and  N_2 
REMARK    2  A    between atoms: C_1  and  C_19 
REMARK    3  A    between atoms: C_1  and  N_20 
REMARK    4  A    between atoms: O_4  and  C_7 
REMARK    5  A    between atoms: O_4  and  N_20 
REMARK    6  A    between atoms: C_7  and  C_22 
REMARK    7  A    between atoms: C_10  and  C_28 
REMARK    8  A    between atoms: C_15  and  C_19 
ROOT
HETATM    1  O   UNL     1       7.024   0.275   0.000  1.00  0.00     0.000 OA
HETATM    2  C   UNL     1       8.524   0.275   0.000  1.00  0.00     0.141 A 
HETATM    3  O   UNL     1       8.524   2.873   0.000  1.00  0.00    -0.189 OA
HETATM    4  C   UNL     1       7.024   2.873   0.000  1.00  0.00     0.246 A 
HETATM    5  O   UNL     1       6.274   1.574   0.000  1.00  0.00    -0.162 OA
HETATM    6  C   UNL     1       6.050  -2.324   0.000  1.00  0.00     0.018 A 
HETATM    7  C   UNL     1       6.800  -1.024   0.000  1.00  0.00    -0.051 A 
HETATM    8  C   UNL     1       8.300  -1.024   0.000  1.00  0.00     0.042 A 
HETATM    9  C   UNL     1       9.050  -2.324   0.000  1.00  0.00     0.014 A 
HETATM   10  C   UNL     1       8.300  -3.623   0.000  1.00  0.00     0.002 A 
HETATM   11  C   UNL     1       6.800  -3.623   0.000  1.00  0.00     0.004 A 
HETATM   12  C   UNL     1       8.524  -2.324   0.000  1.00  0.00     0.017 A 
HETATM   13  C   UNL     1       9.274  -1.024   0.000  1.00  0.00     0.075 A 
HETATM   14  N   UNL     1       9.274   1.574   0.000  1.00  0.00    -0.152 NA
ENDROOT
BRANCH  13  15
HETATM   15  C   UNL     1      10.774  -1.024   0.000  1.00  0.00     0.159 C 
BRANCH  15  16
HETATM   16  N   UNL     1      11.524  -2.324   0.000  1.00  0.00    -0.283 NA
HETATM   17  H   UNL     1      10.774  -3.623   0.000  1.00  0.00     0.188 HD
ENDBRANCH  15  16
BRANCH  15  18
HETATM   18  N   UNL     1      11.524   0.275   0.000  1.00  0.00    -0.110 NA
BRANCH  18  19
HETATM   19  O   UNL     1      13.002   0.014   0.000  1.00  0.00    -0.183 OA
BRANCH  19  20
HETATM   20  C   UNL     1      13.752   1.313   0.000  1.00  0.00     0.247 C 
HETATM   21  O   UNL     1      13.002   2.612   0.000  1.00  0.00    -0.162 OA
BRANCH  20  22
HETATM   22  C   UNL     1      15.252   1.313   0.000  1.00  0.00     0.007 A 
HETATM   23  C   UNL     1      16.002   2.612   0.000  1.00  0.00     0.026 A 
HETATM   24  C   UNL     1      17.502   2.612   0.000  1.00  0.00     0.004 A 
HETATM   25  C   UNL     1      18.252   1.313   0.000  1.00  0.00     0.001 A 
HETATM   26  C   UNL     1      17.502   0.014   0.000  1.00  0.00     0.004 A 
HETATM   27  C   UNL     1      16.002   0.014   0.000  1.00  0.00     0.026 A 
ENDBRANCH  20  22
ENDBRANCH  19  20
ENDBRANCH  18  19
ENDBRANCH  15  18
ENDBRANCH  13  15
BRANCH   4  28
HETATM   28  C   UNL     1       6.274   4.172   0.000  1.00  0.00     0.007 A 
HETATM   29  C   UNL     1       4.774   4.172   0.000  1.00  0.00     0.026 A 
HETATM   30  C   UNL     1       4.024   5.471   0.000  1.00  0.00     0.004 A 
HETATM   31  C   UNL     1       4.774   6.770   0.000  1.00  0.00     0.001 A 
HETATM   32  C   UNL     1       6.274   6.770   0.000  1.00  0.00     0.004 A 
HETATM   33  C   UNL     1       7.024   5.471   0.000  1.00  0.00     0.026 A 
ENDBRANCH   4  28
TORSDOF 8
