REMARK  4 active torsions:
REMARK  status: ('A' for Active; 'I' for Inactive)
REMARK    1  A    between atoms: N_6  and  C_13 
REMARK    2  A    between atoms: C_13  and  C_14 
REMARK    3  A    between atoms: C_14  and  C_15 
REMARK    4  A    between atoms: C_15  and  C_16 
ROOT
HETATM    1  N   UNL     1     -11.559   2.808   0.000  1.00  0.00    -0.203 NA
HETATM    2  N   UNL     1     -10.260   0.558   0.000  1.00  0.00    -0.313 N 
HETATM    3  S   UNL     1     -10.260   5.058   0.000  1.00  0.00    -0.056 SA
HETATM    4  H   UNL     1     -10.260  -0.942   0.000  1.00  0.00     0.170 HD
HETATM    5  N   UNL     1      -7.535   3.271   0.000  1.00  0.00    -0.240 NA
HETATM    6  N   UNL     1      -7.535   0.844   0.000  1.00  0.00    -0.313 N 
HETATM    7  C   UNL     1     -10.260   3.558   0.000  1.00  0.00     0.158 A 
HETATM    8  C   UNL     1      -8.961   2.808   0.000  1.00  0.00     0.138 A 
HETATM    9  C   UNL     1      -8.961   1.308   0.000  1.00  0.00     0.141 A 
HETATM   10  C   UNL     1      -6.653   2.058   0.000  1.00  0.00     0.232 A 
HETATM   11  C   UNL     1     -11.559   1.308   0.000  1.00  0.00     0.217 A 
HETATM   12  N   UNL     1     -12.858   0.558   0.000  1.00  0.00    -0.061 NA
ENDROOT
BRANCH   6  13
HETATM   13  C   UNL     1      -7.071  -0.582   0.000  1.00  0.00     0.105 C 
BRANCH  13  14
HETATM   14  C   UNL     1      -5.604  -0.894   0.000  1.00  0.00     0.024 C 
BRANCH  14  15
HETATM   15  C   UNL     1      -5.140  -2.321   0.000  1.00  0.00     0.002 C 
BRANCH  15  16
HETATM   16  C   UNL     1      -3.673  -2.633   0.000  1.00  0.00     0.000 C 
HETATM   17  C   UNL     1      -3.210  -4.059   0.000  1.00  0.00     0.000 C 
ENDBRANCH  15  16
ENDBRANCH  14  15
ENDBRANCH  13  14
ENDBRANCH   6  13
TORSDOF 4
