REMARK  2 active torsions:
REMARK  status: ('A' for Active; 'I' for Inactive)
REMARK    1  A    between atoms: C_21  and  O_24 
REMARK    2  A    between atoms: O_24  and  C_25 
ROOT
HETATM    1  O   UNL     1      -2.975  -5.636   0.000  1.00  0.00    -0.355 OA
HETATM    2  O   UNL     1      -1.100  -3.862   0.000  1.00  0.00    -0.200 OA
HETATM    3  C   UNL     1       1.497  -3.798   0.000  1.00  0.00     0.049 A 
HETATM    4  C   UNL     1       0.217  -4.580   0.000  1.00  0.00     0.082 A 
HETATM    5  C   UNL     1       2.814  -4.516   0.000  1.00  0.00     0.006 A 
HETATM    6  C   UNL     1       2.851  -6.015   0.000  1.00  0.00    -0.005 A 
HETATM    7  C   UNL     1       0.254  -6.080   0.000  1.00  0.00     0.117 A 
HETATM    8  C   UNL     1       1.571  -6.797   0.000  1.00  0.00     0.020 A 
HETATM    9  C   UNL     1      -0.836  -7.110   0.000  1.00  0.00     0.047 A 
HETATM   10  C   UNL     1      -2.331  -6.990   0.000  1.00  0.00     0.128 A 
HETATM   11  C   UNL     1      -3.183  -8.225   0.000  1.00  0.00    -0.047 A 
HETATM   12  C   UNL     1       1.295  -8.272   0.000  1.00  0.00    -0.016 A 
HETATM   13  C   UNL     1      -0.192  -8.465   0.000  1.00  0.00     0.002 A 
HETATM   14  C   UNL     1      -2.539  -9.580   0.000  1.00  0.00     0.036 A 
HETATM   15  C   UNL     1      -1.044  -9.700   0.000  1.00  0.00     0.008 A 
HETATM   16  C   UNL     1      -3.390 -10.815   0.000  1.00  0.00    -0.004 A 
HETATM   17  C   UNL     1      -4.886 -10.695   0.000  1.00  0.00     0.005 A 
HETATM   18  C   UNL     1      -5.737 -11.930   0.000  1.00  0.00     0.030 A 
HETATM   19  C   UNL     1      -0.400 -11.055   0.000  1.00  0.00    -0.007 A 
HETATM   20  C   UNL     1      -2.747 -12.170   0.000  1.00  0.00     0.021 A 
HETATM   21  C   UNL     1      -5.093 -13.285   0.000  1.00  0.00     0.117 A 
HETATM   22  C   UNL     1      -1.251 -12.290   0.000  1.00  0.00    -0.006 A 
HETATM   23  C   UNL     1      -3.598 -13.405   0.000  1.00  0.00     0.024 A 
HETATM   24  C   UNL     1      -4.034  -9.460   0.000  1.00  0.00     0.010 A 
HETATM   25  C   UNL     1      -1.334  -5.696   0.000  1.00  0.00     0.120 A 
HETATM   26  C   UNL     1       4.094  -3.734   0.000  1.00  0.00     0.000 C 
ENDROOT
BRANCH  21  27
HETATM   27  O   UNL     1      -5.945 -14.520   0.000  1.00  0.00    -0.332 OA
BRANCH  27  28
HETATM   28  C   UNL     1      -7.440 -14.400   0.000  1.00  0.00     0.269 C 
HETATM   29  O   UNL     1      -8.291 -15.635   0.000  1.00  0.00    -0.190 OA
HETATM   30  C   UNL     1      -8.084 -13.045   0.000  1.00  0.00     0.070 C 
ENDBRANCH  27  28
ENDBRANCH  21  27
TORSDOF 2
