REMARK  2 active torsions:
REMARK  status: ('A' for Active; 'I' for Inactive)
REMARK    1  A    between atoms: C_5  and  C_9 
REMARK    2  A    between atoms: C_6  and  C_8 
ROOT
HETATM    1  N   UNL     1       2.636  -3.258   0.000  1.00  0.00    -0.245 NA
HETATM    2  C   UNL     1       2.324  -4.725   0.000  1.00  0.00     0.228 A 
HETATM    3  N   UNL     1       3.623  -5.475   0.000  1.00  0.00    -0.353 N 
HETATM    4  H   UNL     1       3.780  -6.967   0.000  1.00  0.00     0.162 HD
HETATM    5  C   UNL     1       4.128  -3.101   0.000  1.00  0.00     0.085 A 
HETATM    6  C   UNL     1       4.738  -4.471   0.000  1.00  0.00     0.063 A 
ENDROOT
BRANCH   5   7
HETATM    7  C   UNL     1       4.878  -1.802   0.000  1.00  0.00    -0.025 A 
HETATM    8  C   UNL     1       4.128  -0.503   0.000  1.00  0.00     0.024 A 
HETATM    9  C   UNL     1       4.878   0.796   0.000  1.00  0.00     0.004 A 
HETATM   10  C   UNL     1       6.378   0.796   0.000  1.00  0.00     0.001 A 
HETATM   11  C   UNL     1       7.128  -0.503   0.000  1.00  0.00     0.004 A 
HETATM   12  C   UNL     1       6.378  -1.802   0.000  1.00  0.00     0.024 A 
ENDBRANCH   5   7
BRANCH   6  13
HETATM   13  C   UNL     1       6.205  -4.783   0.000  1.00  0.00    -0.028 A 
HETATM   14  C   UNL     1       7.208  -3.668   0.000  1.00  0.00     0.024 A 
HETATM   15  C   UNL     1       8.676  -3.980   0.000  1.00  0.00     0.004 A 
HETATM   16  C   UNL     1       9.139  -5.407   0.000  1.00  0.00     0.001 A 
HETATM   17  C   UNL     1       8.136  -6.521   0.000  1.00  0.00     0.004 A 
HETATM   18  C   UNL     1       6.668  -6.210   0.000  1.00  0.00     0.024 A 
ENDBRANCH   6  13
TORSDOF 2
