REMARK  2 active torsions:
REMARK  status: ('A' for Active; 'I' for Inactive)
REMARK    1  A    between atoms: C_6  and  C_9 
REMARK    2  A    between atoms: C_10  and  C_11 
ROOT
HETATM    1  N   UNL     1      -4.602  -4.682   0.000  1.00  0.00    -0.327 N 
HETATM    2  N   UNL     1      -2.639  -3.255   0.000  1.00  0.00    -0.327 N 
HETATM    3  C   UNL     1      -2.175  -4.682   0.000  1.00  0.00     0.065 A 
HETATM    4  C   UNL     1      -3.389  -5.564   0.000  1.00  0.00     0.065 A 
HETATM    5  C   UNL     1      -4.138  -3.255   0.000  1.00  0.00     0.211 A 
HETATM    6  C   UNL     1      -6.029  -5.146   0.000  1.00  0.00     0.127 C 
HETATM    7  C   UNL     1      -1.757  -2.042   0.000  1.00  0.00     0.127 C 
ENDROOT
BRANCH   3   8
HETATM    8  C   UNL     1      -0.748  -5.146   0.000  1.00  0.00    -0.023 A 
HETATM    9  C   UNL     1       0.366  -4.142   0.000  1.00  0.00     0.049 A 
HETATM   10  C   UNL     1       1.793  -4.605   0.000  1.00  0.00     0.124 A 
HETATM   11  N   UNL     1       2.105  -6.073   0.000  1.00  0.00    -0.295 NA
HETATM   12  C   UNL     1       0.990  -7.076   0.000  1.00  0.00     0.124 A 
HETATM   13  C   UNL     1      -0.436  -6.613   0.000  1.00  0.00     0.049 A 
ENDBRANCH   3   8
BRANCH   4  14
HETATM   14  C   UNL     1      -3.389  -7.064   0.000  1.00  0.00    -0.023 A 
HETATM   15  C   UNL     1      -2.090  -7.814   0.000  1.00  0.00     0.049 A 
HETATM   16  C   UNL     1      -2.090  -9.314   0.000  1.00  0.00     0.124 A 
HETATM   17  N   UNL     1      -3.389 -10.064   0.000  1.00  0.00    -0.295 NA
HETATM   18  C   UNL     1      -4.688  -9.314   0.000  1.00  0.00     0.124 A 
HETATM   19  C   UNL     1      -4.688  -7.814   0.000  1.00  0.00     0.049 A 
ENDBRANCH   4  14
TORSDOF 2
