REMARK  4 active torsions:
REMARK  status: ('A' for Active; 'I' for Inactive)
REMARK       I    between atoms: N_2  and  C_13 
REMARK    1  A    between atoms: C_6  and  C_16 
REMARK    2  A    between atoms: C_9  and  N_17 
REMARK    3  A    between atoms: C_13  and  C_15 
REMARK    4  A    between atoms: C_15  and  C_16 
ROOT
HETATM    1  C   UNL     1       7.245   3.000   0.000  1.00  0.00     0.075 C 
ENDROOT
BRANCH   1   2
HETATM    2  C   UNL     1       5.946   3.750   0.000  1.00  0.00     0.167 C 
HETATM    3  N   UNL     1       4.647   3.000   0.000  1.00  0.00    -0.327 N 
HETATM    4  C   UNL     1       3.348   3.750   0.000  1.00  0.00     0.127 A 
HETATM    5  C   UNL     1       4.647   1.500   0.000  1.00  0.00     0.127 A 
HETATM    6  C   UNL     1       2.049   3.000   0.000  1.00  0.00     0.122 A 
HETATM    7  N   UNL     1       2.049   1.500   0.000  1.00  0.00    -0.364 N 
HETATM    8  C   UNL     1       3.348   0.750   0.000  1.00  0.00     0.122 A 
HETATM    9  C   UNL     1       0.750   0.750   0.000  1.00  0.00     0.121 C 
HETATM   10  O   UNL     1       5.946   5.250   0.000  1.00  0.00    -0.176 OA
ENDBRANCH   1   2
BRANCH   1  11
HETATM   11  C   UNL     1       8.544   3.750   0.000  1.00  0.00     0.039 C 
BRANCH  11  12
HETATM   12  C   UNL     1       9.843   3.000   0.000  1.00  0.00     0.124 A 
HETATM   13  O   UNL     1      11.214   3.610   0.000  1.00  0.00    -0.317 OA
HETATM   14  C   UNL     1      12.217   2.495   0.000  1.00  0.00     0.199 A 
HETATM   15  C   UNL     1      11.467   1.196   0.000  1.00  0.00     0.078 A 
HETATM   16  C   UNL     1      10.000   1.508   0.000  1.00  0.00     0.039 A 
BRANCH  14  17
HETATM   17  N   UNL     1      13.709   2.652   0.000  1.00  0.00    -0.094 N 
HETATM   18  O   UNL     1      14.591   1.439   0.000  1.00  0.00    -0.530 OA
HETATM   19  O   UNL     1      14.319   4.022   0.000  1.00  0.00    -0.530 OA
ENDBRANCH  14  17
ENDBRANCH  11  12
ENDBRANCH   1  11
TORSDOF 4
