REMARK  0 active torsions:
REMARK  status: ('A' for Active; 'I' for Inactive)
ROOT
HETATM    1 CL   UNL     1      -6.120  -8.899   0.000  1.00  0.00    -0.082 Cl
HETATM    2  O   UNL     1      -3.522  -2.900   0.000  1.00  0.00    -0.191 OA
HETATM    3  O   UNL     1      -3.522  -8.899   0.000  1.00  0.00    -0.191 OA
HETATM    4 CL   UNL     1      -0.924  -2.900   0.000  1.00  0.00    -0.082 Cl
HETATM    5  C   UNL     1      -0.924  -4.399   0.000  1.00  0.00     0.068 A 
HETATM    6  C   UNL     1      -2.223  -5.149   0.000  1.00  0.00     0.034 A 
HETATM    7  C   UNL     1       0.375  -5.149   0.000  1.00  0.00     0.059 A 
HETATM    8  C   UNL     1      -3.522  -4.399   0.000  1.00  0.00     0.128 A 
HETATM    9  C   UNL     1      -4.821  -5.149   0.000  1.00  0.00     0.006 A 
HETATM   10  C   UNL     1      -6.120  -4.399   0.000  1.00  0.00     0.034 A 
HETATM   11  C   UNL     1      -7.419  -5.149   0.000  1.00  0.00     0.046 A 
HETATM   12  C   UNL     1       0.375  -6.649   0.000  1.00  0.00     0.046 A 
HETATM   13  C   UNL     1      -2.223  -6.649   0.000  1.00  0.00     0.006 A 
HETATM   14  C   UNL     1      -4.821  -6.649   0.000  1.00  0.00     0.034 A 
HETATM   15  C   UNL     1      -7.419  -6.649   0.000  1.00  0.00     0.059 A 
HETATM   16  C   UNL     1      -0.924  -7.399   0.000  1.00  0.00     0.034 A 
HETATM   17  C   UNL     1      -3.522  -7.399   0.000  1.00  0.00     0.128 A 
HETATM   18  C   UNL     1      -6.120  -7.399   0.000  1.00  0.00     0.068 A 
HETATM   19  N   UNL     1      -8.718  -7.399   0.000  1.00  0.00    -0.104 NA
HETATM   20  N   UNL     1       1.674  -4.399   0.000  1.00  0.00    -0.104 NA
ENDROOT
TORSDOF 0
