REMARK  4 active torsions:
REMARK  status: ('A' for Active; 'I' for Inactive)
REMARK    1  A    between atoms: C_13  and  O_15 
REMARK    2  A    between atoms: O_15  and  C_18 
REMARK    3  A    between atoms: C_18  and  C_19 
REMARK    4  A    between atoms: C_19  and  C_20 
ROOT
HETATM    1  C   UNL     1      -7.399  -6.870   0.000  1.00  0.00     0.134 A 
HETATM    2  C   UNL     1      -5.899  -6.870   0.000  1.00  0.00     0.090 A 
HETATM    3  N   UNL     1      -8.149  -8.169   0.000  1.00  0.00    -0.220 NA
HETATM    4  C   UNL     1      -5.149  -8.169   0.000  1.00  0.00     0.026 A 
HETATM    5  C   UNL     1      -7.399  -9.468   0.000  1.00  0.00     0.171 A 
HETATM    6  C   UNL     1      -5.899  -9.468   0.000  1.00  0.00     0.132 A 
HETATM    7  N   UNL     1      -5.149 -10.767   0.000  1.00  0.00    -0.146 NA
HETATM    8  N   UNL     1      -3.650 -10.767   0.000  1.00  0.00    -0.151 NA
HETATM    9  C   UNL     1      -3.650  -8.169   0.000  1.00  0.00     0.096 A 
HETATM   10  C   UNL     1      -2.900  -9.468   0.000  1.00  0.00     0.098 A 
HETATM   11  C   UNL     1      -1.399  -9.468   0.000  1.00  0.00     0.058 A 
HETATM   12  N   UNL     1      -2.900  -6.870   0.000  1.00  0.00    -0.225 NA
HETATM   13  C   UNL     1      -1.399  -6.870   0.000  1.00  0.00     0.154 A 
HETATM   14  C   UNL     1      -0.649  -8.169   0.000  1.00  0.00     0.078 A 
HETATM   15  N   UNL     1      -8.149  -5.571   0.000  1.00  0.00    -0.084 NA
HETATM   16  N   UNL     1      -8.149 -10.767   0.000  1.00  0.00    -0.078 NA
ENDROOT
BRANCH  13  17
HETATM   17  O   UNL     1      -0.649  -5.571   0.000  1.00  0.00    -0.318 OA
BRANCH  17  18
HETATM   18  C   UNL     1       0.851  -5.571   0.000  1.00  0.00     0.150 C 
BRANCH  18  19
HETATM   19  C   UNL     1       1.601  -4.272   0.000  1.00  0.00     0.033 C 
BRANCH  19  20
HETATM   20  C   UNL     1       0.851  -2.973   0.000  1.00  0.00     0.003 C 
HETATM   21  C   UNL     1      -0.649  -2.973   0.000  1.00  0.00     0.000 C 
ENDBRANCH  19  20
ENDBRANCH  18  19
ENDBRANCH  17  18
ENDBRANCH  13  17
TORSDOF 4
