REMARK  3 active torsions:
REMARK  status: ('A' for Active; 'I' for Inactive)
REMARK    1  A    between atoms: C_5  and  C_15 
REMARK    2  A    between atoms: C_12  and  C_16 
REMARK    3  A    between atoms: C_15  and  C_16 
ROOT
HETATM    1  C   UNL     1      -4.172  -4.774   0.000  1.00  0.00     0.171 C 
HETATM    2  O   UNL     1      -4.172  -3.275   0.000  1.00  0.00    -0.187 OA
ENDROOT
BRANCH   1   3
HETATM    3  C   UNL     1      -5.471  -5.524   0.000  1.00  0.00     0.086 A 
HETATM    4  N   UNL     1      -5.471  -7.024   0.000  1.00  0.00    -0.256 NA
HETATM    5  C   UNL     1      -6.770  -7.774   0.000  1.00  0.00     0.037 A 
HETATM    6  C   UNL     1      -8.069  -7.024   0.000  1.00  0.00     0.042 A 
HETATM    7  C   UNL     1      -6.770  -9.274   0.000  1.00  0.00     0.047 C 
HETATM    8  C   UNL     1      -8.069  -5.524   0.000  1.00  0.00     0.012 A 
HETATM    9  C   UNL     1      -6.770  -4.774   0.000  1.00  0.00     0.048 A 
ENDBRANCH   1   3
BRANCH   1  10
HETATM   10  C   UNL     1      -2.873  -5.524   0.000  1.00  0.00     0.171 C 
HETATM   11  O   UNL     1      -2.873  -7.024   0.000  1.00  0.00    -0.187 OA
BRANCH  10  12
HETATM   12  C   UNL     1      -1.574  -4.774   0.000  1.00  0.00     0.086 A 
HETATM   13  N   UNL     1      -0.275  -5.524   0.000  1.00  0.00    -0.256 NA
HETATM   14  C   UNL     1       1.024  -4.774   0.000  1.00  0.00     0.037 A 
HETATM   15  C   UNL     1       1.024  -3.275   0.000  1.00  0.00     0.042 A 
HETATM   16  C   UNL     1       2.324  -5.524   0.000  1.00  0.00     0.047 C 
HETATM   17  C   UNL     1      -0.275  -2.525   0.000  1.00  0.00     0.012 A 
HETATM   18  C   UNL     1      -1.574  -3.275   0.000  1.00  0.00     0.048 A 
ENDBRANCH  10  12
ENDBRANCH   1  10
TORSDOF 3
