REMARK  2 active torsions:
REMARK  status: ('A' for Active; 'I' for Inactive)
REMARK    1  A    between atoms: C_8  and  C_22 
REMARK    2  A    between atoms: C_17  and  N_24 
REMARK       I    between atoms: C_22  and  N_24 
ROOT
HETATM    1  C   UNL     1       8.149  -0.375   0.000  1.00  0.00     0.210 C 
HETATM    2  O   UNL     1       8.899   0.924   0.000  1.00  0.00    -0.169 OA
HETATM    3  N   UNL     1       8.899  -1.674   0.000  1.00  0.00    -0.225 NA
ENDROOT
BRANCH   1   4
HETATM    4  C   UNL     1       6.649  -0.375   0.000  1.00  0.00     0.047 A 
HETATM    5  C   UNL     1       5.899   0.924   0.000  1.00  0.00     0.126 A 
HETATM    6  C   UNL     1       4.399   0.924   0.000  1.00  0.00    -0.005 A 
HETATM    7  O   UNL     1       6.649   2.223   0.000  1.00  0.00    -0.191 OA
HETATM    8  C   UNL     1       3.650   2.223   0.000  1.00  0.00     0.028 A 
HETATM    9  C   UNL     1       3.650  -0.375   0.000  1.00  0.00    -0.046 A 
HETATM   10  C   UNL     1       2.150   2.223   0.000  1.00  0.00     0.005 A 
HETATM   11  C   UNL     1       1.399   0.924   0.000  1.00  0.00     0.005 A 
HETATM   12  C   UNL     1       2.150  -0.375   0.000  1.00  0.00     0.022 A 
HETATM   13  C   UNL     1       4.399  -1.674   0.000  1.00  0.00     0.027 A 
HETATM   14  C   UNL     1       5.899  -1.674   0.000  1.00  0.00     0.036 A 
ENDBRANCH   1   4
BRANCH   3  15
HETATM   15  C   UNL     1      10.399  -1.674   0.000  1.00  0.00     0.057 A 
HETATM   16  C   UNL     1      11.149  -2.973   0.000  1.00  0.00    -0.012 A 
HETATM   17  C   UNL     1      10.399  -4.272   0.000  1.00  0.00     0.027 A 
HETATM   18  C   UNL     1      12.649  -2.973   0.000  1.00  0.00    -0.023 A 
HETATM   19  C   UNL     1      11.149  -5.571   0.000  1.00  0.00     0.005 A 
HETATM   20  C   UNL     1      12.649  -5.571   0.000  1.00  0.00     0.005 A 
HETATM   21  C   UNL     1      13.399  -4.272   0.000  1.00  0.00     0.026 A 
HETATM   22  C   UNL     1      13.399  -1.674   0.000  1.00  0.00     0.009 A 
HETATM   23  C   UNL     1      12.649  -0.375   0.000  1.00  0.00     0.039 A 
HETATM   24 BR   UNL     1      14.899  -1.674   0.000  1.00  0.00    -0.054 Br
HETATM   25  C   UNL     1      11.149  -0.375   0.000  1.00  0.00     0.051 A 
ENDBRANCH   3  15
TORSDOF 2
