REMARK  5 active torsions:
REMARK  status: ('A' for Active; 'I' for Inactive)
REMARK    1  A    between atoms: N_1  and  C_6 
REMARK    2  A    between atoms: C_2  and  N_15 
REMARK    3  A    between atoms: C_6  and  C_7 
REMARK    4  A    between atoms: C_7  and  C_8 
REMARK    5  A    between atoms: C_8  and  N_9 
ROOT
HETATM    1  C   UNL     1       4.362   1.149   0.000  1.00  0.00     0.139 C 
ENDROOT
BRANCH   1   2
HETATM    2  N   UNL     1       3.213   2.113   0.000  1.00  0.00    -0.311 N 
HETATM    3  C   UNL     1       1.758   1.750   0.000  1.00  0.00     0.268 A 
HETATM    4  N   UNL     1       0.963   3.022   0.000  1.00  0.00    -0.233 NA
HETATM    5  C   UNL     1       1.927   4.171   0.000  1.00  0.00     0.153 A 
HETATM    6  C   UNL     1       3.318   3.609   0.000  1.00  0.00     0.131 A 
BRANCH   3   7
HETATM    7  N   UNL     1       1.196   0.359   0.000  1.00  0.00    -0.078 N 
HETATM    8  O   UNL     1       2.120  -0.823   0.000  1.00  0.00    -0.529 OA
HETATM    9  O   UNL     1      -0.289   0.150   0.000  1.00  0.00    -0.529 OA
ENDBRANCH   3   7
ENDBRANCH   1   2
BRANCH   1  10
HETATM   10  C   UNL     1       5.662   1.899   0.000  1.00  0.00     0.197 C 
HETATM   11  O   UNL     1       5.662   3.398   0.000  1.00  0.00    -0.219 OA
BRANCH  10  12
HETATM   12  C   UNL     1       6.961   1.149   0.000  1.00  0.00     0.140 C 
BRANCH  12  13
HETATM   13  N   UNL     1       8.260   1.899   0.000  1.00  0.00    -0.330 N 
HETATM   14  C   UNL     1       9.760   1.899   0.000  1.00  0.00     0.049 A 
HETATM   15  C   UNL     1       9.010   3.197   0.000  1.00  0.00     0.049 A 
HETATM   16  C   UNL     1      11.059   1.149   0.000  1.00  0.00     0.051 C 
HETATM   17  C   UNL     1       9.010   4.697   0.000  1.00  0.00     0.051 C 
ENDBRANCH  12  13
ENDBRANCH  10  12
ENDBRANCH   1  10
TORSDOF 5
