REMARK  2 active torsions:
REMARK  status: ('A' for Active; 'I' for Inactive)
REMARK    1  A    between atoms: C_11  and  C_13 
REMARK    2  A    between atoms: C_13  and  C_14 
ROOT
HETATM    1  O   UNL     1      -9.374  -1.225   0.000  1.00  0.00    -0.188 OA
HETATM    2  O   UNL     1      -6.734  -0.806   0.000  1.00  0.00     0.000 OA
HETATM    3  N   UNL     1      -5.521  -1.688   0.000  1.00  0.00    -0.144 N 
HETATM    4  C   UNL     1      -3.554   1.317   0.000  1.00  0.00     0.039 A 
HETATM    5  C   UNL     1      -4.558   0.202   0.000  1.00  0.00     0.079 A 
HETATM    6  C   UNL     1      -4.017   2.743   0.000  1.00  0.00     0.006 A 
HETATM    7  C   UNL     1      -5.485   3.055   0.000  1.00  0.00     0.005 A 
HETATM    8  C   UNL     1      -6.025   0.514   0.000  1.00  0.00    -0.018 A 
HETATM    9  C   UNL     1      -6.488   1.940   0.000  1.00  0.00     0.026 A 
HETATM   10  C   UNL     1      -7.948  -1.688   0.000  1.00  0.00     0.158 A 
HETATM   11  C   UNL     1      -7.484  -3.115   0.000  1.00  0.00     0.051 A 
HETATM   12  C   UNL     1      -5.984  -3.115   0.000  1.00  0.00     0.165 A 
HETATM   13  N   UNL     1      -5.103  -4.328   0.000  1.00  0.00    -0.079 NA
HETATM   14  S   UNL     1      -4.094  -1.225   0.000  1.00  0.00     0.282 S 
HETATM   15  O   UNL     1      -3.631  -2.651   0.000  1.00  0.00    -0.199 OA
HETATM   16  O   UNL     1      -2.667  -0.761   0.000  1.00  0.00    -0.199 OA
HETATM   17  C   UNL     1      -5.948   4.482   0.000  1.00  0.00     0.000 C 
ENDROOT
BRANCH  11  18
HETATM   18  C   UNL     1      -8.366  -4.328   0.000  1.00  0.00    -0.039 C 
HETATM   19  C   UNL     1      -7.756  -5.699   0.000  1.00  0.00     0.026 C 
BRANCH  18  20
HETATM   20  C   UNL     1      -9.858  -4.171   0.000  1.00  0.00     0.022 C 
HETATM   21  C   UNL     1     -10.468  -2.801   0.000  1.00  0.00     0.005 C 
ENDBRANCH  18  20
ENDBRANCH  11  18
TORSDOF 2
