REMARK  2 active torsions:
REMARK  status: ('A' for Active; 'I' for Inactive)
REMARK    1  A    between atoms: C_3  and  C_12 
REMARK    2  A    between atoms: C_12  and  C_13 
ROOT
HETATM    1  C   UNL     1      -6.221  -0.275   0.000  1.00  0.00     0.104 A 
HETATM    2  C   UNL     1      -7.520  -1.024   0.000  1.00  0.00     0.096 A 
HETATM    3  C   UNL     1      -4.922  -1.024   0.000  1.00  0.00    -0.020 A 
HETATM    4  C   UNL     1      -4.922  -2.525   0.000  1.00  0.00     0.025 A 
HETATM    5  C   UNL     1      -7.520  -2.525   0.000  1.00  0.00     0.053 A 
HETATM    6  C   UNL     1      -6.221  -3.275   0.000  1.00  0.00     0.011 A 
HETATM    7  O   UNL     1      -6.221   1.226   0.000  1.00  0.00    -0.324 OA
HETATM    8  C   UNL     1      -7.520   1.976   0.000  1.00  0.00     0.213 A 
HETATM    9  C   UNL     1      -8.819   1.226   0.000  1.00  0.00     0.304 A 
HETATM   10  O   UNL     1     -10.118   1.976   0.000  1.00  0.00    -0.187 OA
HETATM   11  O   UNL     1      -8.819  -0.275   0.000  1.00  0.00    -0.304 OA
ENDROOT
BRANCH   3  12
HETATM   12  C   UNL     1      -3.623  -0.275   0.000  1.00  0.00     0.024 C 
BRANCH  12  13
HETATM   13  C   UNL     1      -2.324  -1.024   0.000  1.00  0.00     0.004 C 
HETATM   14  C   UNL     1      -1.024  -0.275   0.000  1.00  0.00     0.000 C 
ENDBRANCH  12  13
ENDBRANCH   3  12
TORSDOF 2
