REMARK  2 active torsions:
REMARK  status: ('A' for Active; 'I' for Inactive)
REMARK    1  A    between atoms: C_8  and  S_9 
REMARK    2  A    between atoms: S_9  and  C_10 
ROOT
HETATM    1  N   UNL     1      -2.873  -5.524   0.000  1.00  0.00    -0.200 NA
HETATM    2  N   UNL     1      -1.574  -7.774   0.000  1.00  0.00    -0.350 N 
HETATM    3  O   UNL     1      -1.574  -3.275   0.000  1.00  0.00    -0.288 OA
HETATM    4  H   UNL     1      -1.574  -9.274   0.000  1.00  0.00     0.163 HD
HETATM    5  C   UNL     1      -1.574  -4.774   0.000  1.00  0.00     0.183 A 
HETATM    6  C   UNL     1      -0.275  -5.524   0.000  1.00  0.00     0.090 A 
HETATM    7  C   UNL     1      -0.275  -7.024   0.000  1.00  0.00     0.134 A 
HETATM    8  C   UNL     1      -2.873  -7.024   0.000  1.00  0.00     0.166 A 
HETATM    9  C   UNL     1       1.024  -4.774   0.000  1.00  0.00     0.232 A 
HETATM   10  O   UNL     1       2.324  -5.524   0.000  1.00  0.00    -0.163 OA
HETATM   11  O   UNL     1       1.024  -3.275   0.000  1.00  0.00    -0.282 OA
HETATM   12  C   UNL     1      -0.275  -2.525   0.000  1.00  0.00     0.248 A 
HETATM   13  C   UNL     1      -0.275  -1.024   0.000  1.00  0.00     0.068 C 
ENDROOT
BRANCH   8  14
HETATM   14  S   UNL     1      -4.172  -7.774   0.000  1.00  0.00    -0.078 SA
BRANCH  14  15
HETATM   15  C   UNL     1      -5.471  -7.024   0.000  1.00  0.00     0.065 C 
HETATM   16  C   UNL     1      -6.770  -7.774   0.000  1.00  0.00     0.013 C 
ENDBRANCH  14  15
ENDBRANCH   8  14
TORSDOF 2
