REMARK  4 active torsions:
REMARK  status: ('A' for Active; 'I' for Inactive)
REMARK    1  A    between atoms: C_3  and  O_18 
REMARK    2  A    between atoms: C_6  and  N_17 
REMARK    3  A    between atoms: C_8  and  C_14 
REMARK    4  A    between atoms: C_10  and  N_17 
ROOT
HETATM    1 CL   UNL     1      -9.843  -7.500   0.000  1.00  0.00    -0.091 Cl
HETATM    2  C   UNL     1      -9.843  -3.000   0.000  1.00  0.00     0.056 A 
HETATM    3  C   UNL     1     -11.142  -3.750   0.000  1.00  0.00     0.039 A 
HETATM    4  C   UNL     1      -8.544  -3.750   0.000  1.00  0.00     0.065 A 
HETATM    5  C   UNL     1      -8.544  -5.250   0.000  1.00  0.00     0.079 A 
HETATM    6  C   UNL     1     -11.142  -5.250   0.000  1.00  0.00     0.039 A 
HETATM    7  C   UNL     1      -9.843  -6.000   0.000  1.00  0.00     0.020 A 
ENDROOT
BRANCH   4   8
HETATM    8  N   UNL     1      -7.245  -3.000   0.000  1.00  0.00    -0.256 NA
BRANCH   8   9
HETATM    9  C   UNL     1      -5.946  -3.750   0.000  1.00  0.00     0.061 A 
HETATM   10  C   UNL     1      -5.946  -5.250   0.000  1.00  0.00     0.052 A 
HETATM   11  C   UNL     1      -4.647  -6.000   0.000  1.00  0.00     0.077 A 
HETATM   12  C   UNL     1      -3.348  -5.250   0.000  1.00  0.00     0.150 A 
HETATM   13  N   UNL     1      -3.348  -3.750   0.000  1.00  0.00    -0.246 NA
HETATM   14  C   UNL     1      -4.647  -3.000   0.000  1.00  0.00     0.168 A 
BRANCH  12  15
HETATM   15  O   UNL     1      -2.049  -6.000   0.000  1.00  0.00    -0.316 OA
HETATM   16  C   UNL     1      -0.750  -5.250   0.000  1.00  0.00     0.183 C 
ENDBRANCH  12  15
ENDBRANCH   8   9
ENDBRANCH   4   8
BRANCH   2  17
HETATM   17  C   UNL     1      -9.843  -1.500   0.000  1.00  0.00     0.208 C 
HETATM   18  O   UNL     1     -11.142  -0.750   0.000  1.00  0.00    -0.644 OA
HETATM   19  O   UNL     1      -8.544  -0.750   0.000  1.00  0.00    -0.644 OA
ENDBRANCH   2  17
TORSDOF 4
