REMARK  0 active torsions:
REMARK  status: ('A' for Active; 'I' for Inactive)
ROOT
HETATM    1  C   UNL     1     -15.299   1.229   0.000  1.00  0.00     0.041 A 
HETATM    2  C   UNL     1     -15.166  -0.265   0.000  1.00  0.00     0.012 A 
HETATM    3  C   UNL     1     -13.805  -0.897   0.000  1.00  0.00     0.046 A 
HETATM    4  C   UNL     1     -14.071   2.091   0.000  1.00  0.00     0.045 A 
HETATM    5  C   UNL     1     -12.711   1.459   0.000  1.00  0.00     0.005 A 
HETATM    6  C   UNL     1     -12.578  -0.035   0.000  1.00  0.00     0.056 A 
HETATM    7  N   UNL     1     -11.217  -0.667   0.000  1.00  0.00    -0.249 NA
HETATM    8  C   UNL     1     -11.483   2.321   0.000  1.00  0.00     0.054 A 
HETATM    9  C   UNL     1      -8.743   2.278   0.000  1.00  0.00     0.133 A 
HETATM   10  C   UNL     1     -10.123   1.690   0.000  1.00  0.00     0.002 A 
HETATM   11  C   UNL     1      -9.990   0.196   0.000  1.00  0.00     0.091 A 
HETATM   12  C   UNL     1      -6.258   1.124   0.000  1.00  0.00     0.193 A 
HETATM   13  N   UNL     1      -7.757   1.148   0.000  1.00  0.00    -0.302 N 
HETATM   14  C   UNL     1      -8.528  -0.139   0.000  1.00  0.00     0.078 A 
HETATM   15  C   UNL     1      -7.798  -1.450   0.000  1.00  0.00     0.011 A 
HETATM   16  C   UNL     1      -6.299  -1.474   0.000  1.00  0.00     0.013 A 
HETATM   17  C   UNL     1      -5.569  -2.785   0.000  1.00  0.00     0.204 A 
HETATM   18  C   UNL     1      -4.069  -2.808   0.000  1.00  0.00     0.302 A 
HETATM   19  O   UNL     1      -3.299  -1.522   0.000  1.00  0.00    -0.322 OA
HETATM   20  C   UNL     1      -4.028  -0.211   0.000  1.00  0.00     0.175 A 
HETATM   21  C   UNL     1      -5.528  -0.187   0.000  1.00  0.00     0.048 A 
HETATM   22  O   UNL     1      -5.487   2.411   0.000  1.00  0.00    -0.171 OA
HETATM   23  O   UNL     1      -3.340  -4.119   0.000  1.00  0.00    -0.187 OA
HETATM   24  C   UNL     1      -6.987  -3.275   0.000  1.00  0.00     0.066 A 
HETATM   25  C   UNL     1      -8.120  -2.293   0.000  1.00  0.00    -0.022 A 
HETATM   26  O   UNL     1      -5.332  -4.266   0.000  1.00  0.00    -0.216 OA
HETATM   27  N   UNL     1     -14.204   3.585   0.000  1.00  0.00    -0.105 NA
ENDROOT
TORSDOF 0
