REMARK  6 active torsions:
REMARK  status: ('A' for Active; 'I' for Inactive)
REMARK    1  A    between atoms: C_10  and  N_37 
REMARK    2  A    between atoms: C_11  and  C_13 
REMARK    3  A    between atoms: C_16  and  C_35 
REMARK    4  A    between atoms: C_19  and  C_33 
REMARK    5  A    between atoms: C_22  and  N_32 
REMARK    6  A    between atoms: C_25  and  C_27 
REMARK       I    between atoms: N_32  and  C_33 
REMARK       I    between atoms: C_35  and  N_37 
ROOT
HETATM    1 CL   UNL     1     -12.766   6.505   0.000  1.00  0.00    -0.087 Cl
HETATM    2  C   UNL     1     -11.467   4.255   0.000  1.00  0.00     0.063 A 
HETATM    3  C   UNL     1     -11.467   2.755   0.000  1.00  0.00     0.005 A 
HETATM    4  C   UNL     1     -12.766   5.005   0.000  1.00  0.00     0.039 A 
HETATM    5  C   UNL     1     -12.766   2.005   0.000  1.00  0.00     0.031 A 
HETATM    6  C   UNL     1     -14.065   4.255   0.000  1.00  0.00     0.029 A 
HETATM    7  C   UNL     1     -14.065   2.755   0.000  1.00  0.00     0.035 A 
ENDROOT
BRANCH   3   8
HETATM    8  C   UNL     1     -10.168   2.005   0.000  1.00  0.00     0.205 C 
HETATM    9  O   UNL     1      -8.869   2.755   0.000  1.00  0.00    -0.170 OA
HETATM   10  N   UNL     1     -10.168   0.505   0.000  1.00  0.00    -0.229 NA
BRANCH  10  11
HETATM   11  C   UNL     1      -8.869  -0.245   0.000  1.00  0.00     0.040 A 
HETATM   12  C   UNL     1      -7.570   0.505   0.000  1.00  0.00     0.046 A 
HETATM   13  C   UNL     1      -6.271  -0.245   0.000  1.00  0.00     0.031 A 
HETATM   14  C   UNL     1      -6.271  -1.745   0.000  1.00  0.00    -0.010 A 
HETATM   15  C   UNL     1      -7.570  -2.495   0.000  1.00  0.00     0.031 A 
HETATM   16  C   UNL     1      -8.869  -1.745   0.000  1.00  0.00     0.046 A 
BRANCH  14  17
HETATM   17  C   UNL     1      -4.972  -2.495   0.000  1.00  0.00     0.124 A 
HETATM   18  N   UNL     1      -4.815  -3.987   0.000  1.00  0.00    -0.253 NA
HETATM   19  C   UNL     1      -3.348  -4.299   0.000  1.00  0.00     0.151 A 
HETATM   20  C   UNL     1      -2.598  -3.000   0.000  1.00  0.00     0.126 A 
HETATM   21  N   UNL     1      -3.602  -1.885   0.000  1.00  0.00    -0.358 N 
HETATM   22  H   UNL     1      -3.290  -0.418   0.000  1.00  0.00     0.162 HD
ENDBRANCH  14  17
ENDBRANCH  10  11
ENDBRANCH   3   8
BRANCH   6  23
HETATM   23  C   UNL     1     -15.364   5.005   0.000  1.00  0.00     0.209 C 
HETATM   24  N   UNL     1     -16.663   4.255   0.000  1.00  0.00    -0.229 NA
HETATM   25  O   UNL     1     -15.364   6.505   0.000  1.00  0.00    -0.170 OA
BRANCH  24  26
HETATM   26  C   UNL     1     -17.962   5.005   0.000  1.00  0.00     0.040 A 
HETATM   27  C   UNL     1     -17.962   6.505   0.000  1.00  0.00     0.046 A 
HETATM   28  C   UNL     1     -19.262   7.255   0.000  1.00  0.00     0.031 A 
HETATM   29  C   UNL     1     -20.561   6.505   0.000  1.00  0.00    -0.010 A 
HETATM   30  C   UNL     1     -20.561   5.005   0.000  1.00  0.00     0.031 A 
HETATM   31  C   UNL     1     -19.262   4.255   0.000  1.00  0.00     0.046 A 
BRANCH  29  32
HETATM   32  C   UNL     1     -21.860   7.255   0.000  1.00  0.00     0.124 A 
HETATM   33  N   UNL     1     -22.016   8.746   0.000  1.00  0.00    -0.358 N 
HETATM   34  H   UNL     1     -20.902   9.750   0.000  1.00  0.00     0.162 HD
HETATM   35  C   UNL     1     -23.484   9.058   0.000  1.00  0.00     0.126 A 
HETATM   36  C   UNL     1     -24.234   7.759   0.000  1.00  0.00     0.151 A 
HETATM   37  N   UNL     1     -23.230   6.644   0.000  1.00  0.00    -0.253 NA
ENDBRANCH  29  32
ENDBRANCH  24  26
ENDBRANCH   6  23
TORSDOF 6
