REMARK  4 active torsions:
REMARK  status: ('A' for Active; 'I' for Inactive)
REMARK       I    between atoms: N_1  and  C_7 
REMARK    1  A    between atoms: C_7  and  C_9 
REMARK    2  A    between atoms: C_9  and  C_10 
REMARK    3  A    between atoms: C_10  and  C_11 
REMARK    4  A    between atoms: C_11  and  C_12 
ROOT
HETATM    1  N   UNL     1       2.223   3.650   0.000  1.00  0.00    -0.331 N 
HETATM    2  C   UNL     1       0.924   4.399   0.000  1.00  0.00     0.103 A 
HETATM    3  C   UNL     1      -0.375   3.650   0.000  1.00  0.00     0.024 A 
HETATM    4  C   UNL     1      -0.375   2.150   0.000  1.00  0.00     0.004 A 
HETATM    5  C   UNL     1       0.924   1.399   0.000  1.00  0.00     0.024 A 
HETATM    6  C   UNL     1       2.223   2.150   0.000  1.00  0.00     0.103 A 
HETATM    7  C   UNL     1       3.522   4.399   0.000  1.00  0.00     0.167 C 
HETATM    8  O   UNL     1       4.821   3.650   0.000  1.00  0.00    -0.176 OA
ENDROOT
BRANCH   7   9
HETATM    9  C   UNL     1       3.522   5.899   0.000  1.00  0.00     0.072 C 
BRANCH   9  10
HETATM   10  C   UNL     1       4.821   6.649   0.000  1.00  0.00     0.009 C 
BRANCH  10  11
HETATM   11  C   UNL     1       6.120   5.899   0.000  1.00  0.00     0.001 C 
BRANCH  11  12
HETATM   12  C   UNL     1       7.419   6.649   0.000  1.00  0.00     0.000 C 
HETATM   13  C   UNL     1       8.718   5.899   0.000  1.00  0.00     0.000 C 
ENDBRANCH  11  12
ENDBRANCH  10  11
ENDBRANCH   9  10
ENDBRANCH   7   9
TORSDOF 4
