REMARK  4 active torsions:
REMARK  status: ('A' for Active; 'I' for Inactive)
REMARK       I    between atoms: N_1  and  C_6 
REMARK    1  A    between atoms: C_6  and  C_8 
REMARK    2  A    between atoms: C_8  and  C_9 
REMARK    3  A    between atoms: C_9  and  C_10 
REMARK    4  A    between atoms: C_10  and  C_11 
ROOT
HETATM    1  N   UNL     1       2.275   2.894   0.000  1.00  0.00    -0.331 N 
HETATM    2  C   UNL     1       1.062   3.776   0.000  1.00  0.00     0.103 A 
HETATM    3  C   UNL     1      -0.152   2.894   0.000  1.00  0.00     0.026 A 
HETATM    4  C   UNL     1       0.312   1.467   0.000  1.00  0.00     0.026 A 
HETATM    5  C   UNL     1       1.812   1.467   0.000  1.00  0.00     0.103 A 
HETATM    6  C   UNL     1       3.702   3.357   0.000  1.00  0.00     0.167 C 
HETATM    7  O   UNL     1       4.817   2.354   0.000  1.00  0.00    -0.176 OA
ENDROOT
BRANCH   6   8
HETATM    8  C   UNL     1       4.014   4.825   0.000  1.00  0.00     0.072 C 
BRANCH   8   9
HETATM    9  C   UNL     1       5.440   5.288   0.000  1.00  0.00     0.009 C 
BRANCH   9  10
HETATM   10  C   UNL     1       6.555   4.284   0.000  1.00  0.00     0.001 C 
BRANCH  10  11
HETATM   11  C   UNL     1       7.982   4.748   0.000  1.00  0.00     0.000 C 
HETATM   12  C   UNL     1       9.096   3.744   0.000  1.00  0.00     0.000 C 
ENDBRANCH  10  11
ENDBRANCH   9  10
ENDBRANCH   8   9
ENDBRANCH   6   8
TORSDOF 4
