REMARK  0 active torsions:
REMARK  status: ('A' for Active; 'I' for Inactive)
ROOT
HETATM    1  N   UNL     1      -0.924  -1.399   0.000  1.00  0.00    -0.286 NA
HETATM    2  C   UNL     1       0.375  -2.150   0.000  1.00  0.00     0.142 A 
HETATM    3  C   UNL     1       0.375  -3.650   0.000  1.00  0.00    -0.021 A 
HETATM    4  C   UNL     1      -0.924  -4.399   0.000  1.00  0.00    -0.013 A 
HETATM    5  C   UNL     1       1.674  -4.399   0.000  1.00  0.00     0.024 A 
HETATM    6  C   UNL     1      -2.223  -3.650   0.000  1.00  0.00    -0.004 A 
HETATM    7  C   UNL     1      -2.223  -2.150   0.000  1.00  0.00     0.146 A 
HETATM    8  C   UNL     1      -3.123  -4.989   0.000  1.00  0.00    -0.029 A 
HETATM    9  C   UNL     1      -4.623  -4.989   0.000  1.00  0.00     0.026 A 
HETATM   10  C   UNL     1      -5.373  -6.288   0.000  1.00  0.00     0.005 A 
HETATM   11  C   UNL     1       1.674  -5.899   0.000  1.00  0.00     0.009 A 
HETATM   12  C   UNL     1      -0.924  -5.899   0.000  1.00  0.00    -0.027 A 
HETATM   13  C   UNL     1      -2.373  -6.288   0.000  1.00  0.00    -0.030 A 
HETATM   14  C   UNL     1      -4.623  -7.587   0.000  1.00  0.00     0.005 A 
HETATM   15  C   UNL     1       0.375  -6.649   0.000  1.00  0.00     0.026 A 
HETATM   16  C   UNL     1      -3.123  -7.587   0.000  1.00  0.00     0.026 A 
ENDROOT
TORSDOF 0
