REMARK  7 active torsions:
REMARK  status: ('A' for Active; 'I' for Inactive)
REMARK    1  A    between atoms: C_3  and  O_18 
REMARK    2  A    between atoms: C_6  and  N_17 
REMARK    3  A    between atoms: C_8  and  C_14 
REMARK    4  A    between atoms: C_10  and  N_17 
REMARK    5  A    between atoms: O_18  and  C_19 
REMARK    6  A    between atoms: C_19  and  C_20 
REMARK    7  A    between atoms: C_20  and  C_21 
ROOT
HETATM    1  N   UNL     1      -8.544  -2.250   0.000  1.00  0.00    -0.250 NA
HETATM    2  C   UNL     1      -7.245  -3.000   0.000  1.00  0.00     0.149 A 
HETATM    3  C   UNL     1      -7.245  -4.500   0.000  1.00  0.00     0.073 A 
HETATM    4  C   UNL     1      -8.544  -5.250   0.000  1.00  0.00     0.035 A 
HETATM    5  C   UNL     1      -9.843  -4.500   0.000  1.00  0.00     0.128 A 
HETATM    6  C   UNL     1      -9.843  -3.000   0.000  1.00  0.00     0.152 A 
ENDROOT
BRANCH   5   7
HETATM    7  N   UNL     1     -11.142  -5.250   0.000  1.00  0.00    -0.275 NA
BRANCH   7   8
HETATM    8  C   UNL     1     -12.291  -4.286   0.000  1.00  0.00     0.060 A 
HETATM    9  C   UNL     1     -13.701  -4.799   0.000  1.00  0.00     0.056 A 
HETATM   10  C   UNL     1     -14.850  -3.835   0.000  1.00  0.00     0.039 A 
HETATM   11  C   UNL     1     -14.589  -2.357   0.000  1.00  0.00     0.039 A 
HETATM   12  C   UNL     1     -13.180  -1.844   0.000  1.00  0.00     0.020 A 
HETATM   13 CL   UNL     1     -12.919  -0.367   0.000  1.00  0.00    -0.091 Cl
HETATM   14  C   UNL     1     -12.031  -2.809   0.000  1.00  0.00     0.079 A 
BRANCH   9  15
HETATM   15  C   UNL     1     -13.961  -6.276   0.000  1.00  0.00     0.208 C 
HETATM   16  O   UNL     1     -15.371  -6.789   0.000  1.00  0.00    -0.644 OA
HETATM   17  O   UNL     1     -12.812  -7.240   0.000  1.00  0.00    -0.644 OA
ENDBRANCH   9  15
ENDBRANCH   7   8
ENDBRANCH   5   7
BRANCH   2  18
HETATM   18  O   UNL     1      -5.946  -2.250   0.000  1.00  0.00    -0.318 OA
BRANCH  18  19
HETATM   19  C   UNL     1      -4.647  -3.000   0.000  1.00  0.00     0.150 C 
BRANCH  19  20
HETATM   20  C   UNL     1      -3.348  -2.250   0.000  1.00  0.00     0.033 C 
BRANCH  20  21
HETATM   21  C   UNL     1      -2.049  -3.000   0.000  1.00  0.00     0.003 C 
HETATM   22  C   UNL     1      -0.750  -2.250   0.000  1.00  0.00     0.000 C 
ENDBRANCH  20  21
ENDBRANCH  19  20
ENDBRANCH  18  19
ENDBRANCH   2  18
TORSDOF 7
