REMARK  0 active torsions:
REMARK  status: ('A' for Active; 'I' for Inactive)
ROOT
HETATM    1  N   UNL     1      -5.656  -3.000   0.000  1.00  0.00    -0.198 NA
HETATM    2  N   UNL     1      -4.357  -0.750   0.000  1.00  0.00    -0.117 NA
HETATM    3  N   UNL     1      -3.058  -1.500   0.000  1.00  0.00    -0.156 N 
HETATM    4  N   UNL     1      -1.632  -1.036   0.000  1.00  0.00    -0.005 NA
HETATM    5  N   UNL     1      -0.750  -2.250   0.000  1.00  0.00    -0.102 NA
HETATM    6  C   UNL     1      -5.656  -1.500   0.000  1.00  0.00     0.257 A 
HETATM    7  C   UNL     1      -1.632  -3.463   0.000  1.00  0.00     0.161 A 
HETATM    8  C   UNL     1      -3.058  -3.000   0.000  1.00  0.00     0.126 A 
HETATM    9  C   UNL     1      -4.357  -3.750   0.000  1.00  0.00     0.170 A 
HETATM   10  N   UNL     1      -6.955  -0.750   0.000  1.00  0.00    -0.058 NA
HETATM   11  N   UNL     1      -4.357  -5.250   0.000  1.00  0.00    -0.078 NA
ENDROOT
TORSDOF 0
