REMARK  0 active torsions:
REMARK  status: ('A' for Active; 'I' for Inactive)
ROOT
HETATM    1  C   UNL     1      -8.382  -4.963   0.000  1.00  0.00     0.033 A 
HETATM    2  C   UNL     1      -9.681  -4.213   0.000  1.00  0.00     0.006 A 
HETATM    3  C   UNL     1      -9.681  -2.713   0.000  1.00  0.00     0.005 A 
HETATM    4  C   UNL     1      -8.382  -1.964   0.000  1.00  0.00     0.028 A 
HETATM    5  C   UNL     1      -7.083  -2.713   0.000  1.00  0.00    -0.002 A 
HETATM    6  C   UNL     1      -7.083  -4.213   0.000  1.00  0.00     0.005 A 
HETATM    7  S   UNL     1      -5.656  -4.677   0.000  1.00  0.00    -0.090 SA
HETATM    8  C   UNL     1      -4.775  -3.463   0.000  1.00  0.00     0.044 A 
HETATM    9  C   UNL     1      -5.656  -2.250   0.000  1.00  0.00     0.083 A 
HETATM   10  C   UNL     1      -3.348  -3.000   0.000  1.00  0.00    -0.001 A 
HETATM   11  C   UNL     1      -3.348  -1.500   0.000  1.00  0.00     0.056 A 
HETATM   12  N   UNL     1      -4.775  -1.036   0.000  1.00  0.00    -0.250 NA
HETATM   13  C   UNL     1      -2.049  -3.750   0.000  1.00  0.00     0.028 A 
HETATM   14  C   UNL     1      -0.750  -3.000   0.000  1.00  0.00     0.005 A 
HETATM   15  C   UNL     1      -0.750  -1.500   0.000  1.00  0.00     0.007 A 
HETATM   16  C   UNL     1      -2.049  -0.750   0.000  1.00  0.00     0.045 A 
ENDROOT
TORSDOF 0
