REMARK  2 active torsions:
REMARK  status: ('A' for Active; 'I' for Inactive)
REMARK    1  A    between atoms: C_2  and  C_9 
REMARK    2  A    between atoms: C_4  and  C_9 
ROOT
HETATM    1  C   UNL     1       2.552  -0.053   0.000  1.00  0.00     0.310 A 
HETATM    2  C   UNL     1       0.199   0.541   0.000  1.00  0.00     0.061 A 
HETATM    3  C   UNL     1       0.299  -0.955   0.000  1.00  0.00     0.214 A 
HETATM    4  S   UNL     1       1.591   1.099   0.000  1.00  0.00    -0.057 SA
HETATM    5  N   UNL     1       1.753  -1.323   0.000  1.00  0.00    -0.205 NA
HETATM    6  O   UNL     1      -0.853  -1.916   0.000  1.00  0.00    -0.169 OA
HETATM    7  O   UNL     1       4.049   0.047   0.000  1.00  0.00    -0.183 OA
ENDROOT
BRANCH   2   8
HETATM    8  C   UNL     1      -1.071   1.340   0.000  1.00  0.00     0.134 C 
BRANCH   8   9
HETATM    9  C   UNL     1      -2.397   0.640   0.000  1.00  0.00     0.191 C 
HETATM   10  O   UNL     1      -2.454  -0.859   0.000  1.00  0.00    -0.647 OA
HETATM   11  O   UNL     1      -3.667   1.439   0.000  1.00  0.00    -0.647 OA
ENDBRANCH   8   9
ENDBRANCH   2   8
TORSDOF 2
