REMARK  0 active torsions:
REMARK  status: ('A' for Active; 'I' for Inactive)
ROOT
HETATM    1  N   UNL     1      -5.946  -6.000   0.000  1.00  0.00    -0.246 NA
HETATM    2  N   UNL     1      -5.946  -3.000   0.000  1.00  0.00    -0.245 NA
HETATM    3  C   UNL     1      -8.544  -3.000   0.000  1.00  0.00     0.068 A 
HETATM    4  C   UNL     1      -9.843  -3.750   0.000  1.00  0.00    -0.045 A 
HETATM    5  C   UNL     1      -7.245  -3.750   0.000  1.00  0.00     0.077 A 
HETATM    6  C   UNL     1      -7.245  -5.250   0.000  1.00  0.00     0.077 A 
HETATM    7  C   UNL     1      -9.843  -5.250   0.000  1.00  0.00    -0.045 A 
HETATM    8  C   UNL     1      -8.544  -6.000   0.000  1.00  0.00     0.068 A 
HETATM    9  C   UNL     1      -4.647  -3.750   0.000  1.00  0.00     0.118 A 
HETATM   10  C   UNL     1      -4.647  -5.250   0.000  1.00  0.00     0.112 A 
HETATM   11  C   UNL     1     -11.142  -6.000   0.000  1.00  0.00     0.026 C 
HETATM   12  C   UNL     1      -3.348  -6.000   0.000  1.00  0.00     0.056 A 
HETATM   13  C   UNL     1      -3.348  -7.500   0.000  1.00  0.00     0.045 A 
HETATM   14  C   UNL     1      -2.049  -8.250   0.000  1.00  0.00     0.008 A 
HETATM   15  C   UNL     1      -0.750  -7.500   0.000  1.00  0.00     0.025 A 
HETATM   16  C   UNL     1      -0.750  -6.000   0.000  1.00  0.00     0.106 A 
HETATM   17  N   UNL     1      -2.049  -5.250   0.000  1.00  0.00    -0.332 N 
HETATM   18  C   UNL     1      -3.348  -3.000   0.000  1.00  0.00     0.107 A 
HETATM   19  C   UNL     1      -2.049  -3.750   0.000  1.00  0.00     0.056 A 
HETATM   20  C   UNL     1      -0.750  -3.000   0.000  1.00  0.00     0.048 A 
HETATM   21  C   UNL     1      -0.750  -1.500   0.000  1.00  0.00     0.033 A 
HETATM   22  C   UNL     1      -2.049  -0.750   0.000  1.00  0.00     0.126 A 
HETATM   23  N   UNL     1      -3.348  -1.500   0.000  1.00  0.00    -0.268 NA
HETATM   24  C   UNL     1     -11.142  -3.000   0.000  1.00  0.00     0.026 C 
ENDROOT
TORSDOF 0
