REMARK  2 active torsions:
REMARK  status: ('A' for Active; 'I' for Inactive)
REMARK    1  A    between atoms: C_5  and  O_22 
REMARK    2  A    between atoms: C_15  and  C_16 
ROOT
HETATM    1  C   UNL     1      -6.309  -6.009   0.000  1.00  0.00    -0.036 A 
HETATM    2  C   UNL     1      -7.608  -5.259   0.000  1.00  0.00     0.023 A 
HETATM    3  C   UNL     1      -8.907  -6.009   0.000  1.00  0.00     0.011 A 
HETATM    4  C   UNL     1      -8.907  -7.509   0.000  1.00  0.00     0.051 A 
HETATM    5  C   UNL     1      -7.608  -8.259   0.000  1.00  0.00     0.072 A 
HETATM    6  C   UNL     1      -6.309  -7.509   0.000  1.00  0.00     0.023 A 
HETATM    7  C   UNL     1      -5.010  -5.259   0.000  1.00  0.00     0.062 A 
HETATM    8  C   UNL     1      -3.711  -6.009   0.000  1.00  0.00     0.023 A 
HETATM    9  N   UNL     1      -3.711  -7.509   0.000  1.00  0.00    -0.319 N 
HETATM   10  C   UNL     1      -5.010  -8.259   0.000  1.00  0.00     0.042 A 
HETATM   11  C   UNL     1      -2.412  -5.259   0.000  1.00  0.00     0.045 A 
HETATM   12  N   UNL     1      -1.113  -6.009   0.000  1.00  0.00     0.000 N 
HETATM   13  C   UNL     1      -1.113  -7.509   0.000  1.00  0.00     0.046 A 
HETATM   14  C   UNL     1      -2.412  -8.259   0.000  1.00  0.00     0.061 A 
HETATM   15  C   UNL     1      -0.920  -5.102   0.000  1.00  0.00     0.063 A 
HETATM   16  C   UNL     1      -0.310  -6.472   0.000  1.00  0.00     0.016 A 
HETATM   17  C   UNL     1       0.296  -5.496   0.000  1.00  0.00     0.063 A 
HETATM   18  C   UNL     1      -2.412  -9.759   0.000  1.00  0.00     0.135 A 
HETATM   19  N   UNL     1      -2.412 -11.259   0.000  1.00  0.00    -0.145 NA
HETATM   20  C   UNL     1      -5.010  -9.759   0.000  1.00  0.00     0.050 A 
HETATM   21  O   UNL     1      -3.711 -10.509   0.000  1.00  0.00     0.000 OA
HETATM   22  C   UNL     1      -0.170  -3.803   0.000  1.00  0.00     0.250 A 
HETATM   23  O   UNL     1       1.330  -3.803   0.000  1.00  0.00    -0.193 OA
HETATM   24  O   UNL     1      -0.920  -2.504   0.000  1.00  0.00    -0.193 OA
ENDROOT
BRANCH   5  25
HETATM   25  O   UNL     1      -7.608  -9.759   0.000  1.00  0.00    -0.332 OA
HETATM   26  C   UNL     1      -8.907 -10.509   0.000  1.00  0.00     0.181 C 
ENDBRANCH   5  25
TORSDOF 2
