REMARK  0 active torsions:
REMARK  status: ('A' for Active; 'I' for Inactive)
ROOT
HETATM    1  C   UNL     1      -2.284   5.919   0.000  1.00  0.00     0.005 A 
HETATM    2  C   UNL     1      -2.284   4.419   0.000  1.00  0.00     0.007 A 
HETATM    3  C   UNL     1      -0.985   6.669   0.000  1.00  0.00     0.028 A 
HETATM    4  C   UNL     1      -0.985   3.669   0.000  1.00  0.00     0.043 A 
HETATM    5  C   UNL     1       0.315   5.919   0.000  1.00  0.00    -0.010 A 
HETATM    6  C   UNL     1       0.315   4.419   0.000  1.00  0.00     0.029 A 
HETATM    7  N   UNL     1       1.741   3.955   0.000  1.00  0.00    -0.360 N 
HETATM    8  H   UNL     1       2.205   2.529   0.000  1.00  0.00     0.165 HD
HETATM    9  C   UNL     1       1.741   6.383   0.000  1.00  0.00     0.001 A 
HETATM   10  C   UNL     1       2.623   5.169   0.000  1.00  0.00     0.033 A 
HETATM   11  C   UNL     1       2.351   7.753   0.000  1.00  0.00    -0.039 A 
HETATM   12  C   UNL     1       4.115   5.326   0.000  1.00  0.00     0.044 A 
HETATM   13  C   UNL     1       3.843   7.910   0.000  1.00  0.00     0.030 A 
HETATM   14  C   UNL     1       4.725   6.696   0.000  1.00  0.00     0.011 A 
HETATM   15  C   UNL     1       4.453   9.280   0.000  1.00  0.00     0.040 A 
HETATM   16  C   UNL     1       3.571  10.493   0.000  1.00  0.00    -0.044 A 
HETATM   17  C   UNL     1       6.216   6.853   0.000  1.00  0.00     0.005 A 
HETATM   18  C   UNL     1       6.827   8.223   0.000  1.00  0.00     0.022 A 
HETATM   19  C   UNL     1       5.945   9.437   0.000  1.00  0.00    -0.048 A 
HETATM   20  C   UNL     1       4.181  11.864   0.000  1.00  0.00    -0.043 A 
HETATM   21  C   UNL     1       5.673  12.021   0.000  1.00  0.00     0.061 A 
HETATM   22  C   UNL     1       6.555  10.807   0.000  1.00  0.00    -0.046 A 
HETATM   23  C   UNL     1       6.555  13.234   0.000  1.00  0.00     0.138 A 
HETATM   24  C   UNL     1       7.982  11.271   0.000  1.00  0.00     0.024 A 
HETATM   25  C   UNL     1       7.982  12.771   0.000  1.00  0.00     0.036 A 
HETATM   26  C   UNL     1       2.961   9.123   0.000  1.00  0.00     0.040 A 
HETATM   27  C   UNL     1       4.923  13.320   0.000  1.00  0.00     0.056 A 
HETATM   28  O   UNL     1       6.091  14.661   0.000  1.00  0.00    -0.225 OA
ENDROOT
TORSDOF 0
