REMARK  3 active torsions:
REMARK  status: ('A' for Active; 'I' for Inactive)
REMARK    1  A    between atoms: O_1  and  C_7 
REMARK    2  A    between atoms: C_15  and  O_24 
REMARK    3  A    between atoms: C_22  and  O_24 
ROOT
HETATM    1  O   UNL     1      -7.245  -0.750   0.000  1.00  0.00     0.000 OA
HETATM    2  C   UNL     1      -8.544  -3.000   0.000  1.00  0.00     0.005 A 
HETATM    3  C   UNL     1      -9.843  -3.750   0.000  1.00  0.00     0.028 A 
HETATM    4  C   UNL     1      -7.245  -3.750   0.000  1.00  0.00     0.025 A 
HETATM    5  C   UNL     1      -7.245  -5.250   0.000  1.00  0.00     0.030 A 
HETATM    6  C   UNL     1      -9.843  -5.250   0.000  1.00  0.00     0.005 A 
HETATM    7  C   UNL     1      -8.544  -6.000   0.000  1.00  0.00     0.005 A 
HETATM    8  C   UNL     1      -8.544  -1.500   0.000  1.00  0.00     0.152 A 
HETATM    9  O   UNL     1      -9.843  -0.750   0.000  1.00  0.00    -0.188 OA
HETATM   10  C   UNL     1      -5.946  -3.000   0.000  1.00  0.00     0.224 A 
HETATM   11  O   UNL     1      -5.946  -1.500   0.000  1.00  0.00    -0.164 OA
ENDROOT
BRANCH  10  12
HETATM   12  O   UNL     1      -4.647  -3.750   0.000  1.00  0.00    -0.312 OA
BRANCH  12  13
HETATM   13  C   UNL     1      -3.348  -3.000   0.000  1.00  0.00     0.123 A 
HETATM   14  C   UNL     1      -3.348  -1.500   0.000  1.00  0.00     0.030 A 
HETATM   15  C   UNL     1      -2.049  -0.750   0.000  1.00  0.00     0.003 A 
HETATM   16  C   UNL     1      -0.750  -1.500   0.000  1.00  0.00     0.000 A 
HETATM   17  C   UNL     1      -0.750  -3.000   0.000  1.00  0.00     0.003 A 
HETATM   18  C   UNL     1      -2.049  -3.750   0.000  1.00  0.00     0.030 A 
ENDBRANCH  12  13
ENDBRANCH  10  12
BRANCH   1  19
HETATM   19  C   UNL     1      -7.245   0.750   0.000  1.00  0.00    -0.052 A 
HETATM   20  C   UNL     1      -8.544   1.500   0.000  1.00  0.00     0.021 A 
HETATM   21  C   UNL     1      -8.544   3.000   0.000  1.00  0.00     0.004 A 
HETATM   22  C   UNL     1      -7.245   3.750   0.000  1.00  0.00     0.001 A 
HETATM   23  C   UNL     1      -5.946   3.000   0.000  1.00  0.00     0.004 A 
HETATM   24  C   UNL     1      -5.946   1.500   0.000  1.00  0.00     0.021 A 
ENDBRANCH   1  19
TORSDOF 3
