REMARK  1 active torsions:
REMARK  status: ('A' for Active; 'I' for Inactive)
REMARK    1  A    between atoms: C_3  and  C_11 
ROOT
HETATM    1  C   UNL     1      -0.223   1.455   0.000  1.00  0.00     0.044 A 
HETATM    2  C   UNL     1      -1.681   1.104   0.000  1.00  0.00     0.062 A 
HETATM    3  C   UNL     1       0.811   0.368   0.000  1.00  0.00     0.041 A 
HETATM    4  C   UNL     1      -1.379  -0.678   0.000  1.00  0.00     0.029 A 
HETATM    5  C   UNL     1      -2.106  -0.334   0.000  1.00  0.00     0.017 A 
HETATM    6  C   UNL     1       0.096  -0.951   0.000  1.00  0.00     0.007 A 
HETATM    7 BR   UNL     1      -2.714   2.192   0.000  1.00  0.00    -0.082 Br
HETATM    8  O   UNL     1      -1.246  -1.563   0.000  1.00  0.00     0.000 OA
HETATM    9  O   UNL     1      -1.576   0.809   0.000  1.00  0.00     0.000 OA
HETATM   10  C   UNL     1       0.251  -1.658   0.000  1.00  0.00     0.152 A 
HETATM   11  O   UNL     1       1.389  -2.635   0.000  1.00  0.00    -0.188 OA
ENDROOT
BRANCH   3  12
HETATM   12  C   UNL     1       2.298   0.565   0.000  1.00  0.00     0.206 C 
HETATM   13  O   UNL     1       2.871   1.951   0.000  1.00  0.00    -0.644 OA
HETATM   14  O   UNL     1       3.212  -0.625   0.000  1.00  0.00    -0.644 OA
ENDBRANCH   3  12
TORSDOF 1
