REMARK  2 active torsions:
REMARK  status: ('A' for Active; 'I' for Inactive)
REMARK    1  A    between atoms: C_8  and  C_17 
REMARK    2  A    between atoms: C_9  and  C_11 
ROOT
HETATM    1  C   UNL     1      -7.245  -2.250   0.000  1.00  0.00     0.028 A 
HETATM    2  C   UNL     1      -5.946  -3.000   0.000  1.00  0.00     0.001 A 
HETATM    3  C   UNL     1      -8.544  -3.000   0.000  1.00  0.00     0.005 A 
HETATM    4  C   UNL     1      -5.946  -4.500   0.000  1.00  0.00     0.001 A 
HETATM    5  C   UNL     1      -8.544  -4.500   0.000  1.00  0.00     0.005 A 
HETATM    6  C   UNL     1      -7.245  -5.250   0.000  1.00  0.00     0.028 A 
HETATM    7  O   UNL     1      -3.348  -3.000   0.000  1.00  0.00    -0.191 OA
HETATM    8  C   UNL     1      -4.647  -2.250   0.000  1.00  0.00     0.119 A 
HETATM    9  C   UNL     1      -4.647  -5.250   0.000  1.00  0.00     0.119 A 
HETATM   10  O   UNL     1      -3.348  -4.500   0.000  1.00  0.00    -0.191 OA
ENDROOT
BRANCH   8  11
HETATM   11  C   UNL     1      -4.647  -0.750   0.000  1.00  0.00    -0.019 A 
HETATM   12  C   UNL     1      -3.348   0.000   0.000  1.00  0.00     0.024 A 
HETATM   13  C   UNL     1      -3.348   1.500   0.000  1.00  0.00     0.004 A 
HETATM   14  C   UNL     1      -4.647   2.250   0.000  1.00  0.00     0.001 A 
HETATM   15  C   UNL     1      -5.946   1.500   0.000  1.00  0.00     0.004 A 
HETATM   16  C   UNL     1      -5.946   0.000   0.000  1.00  0.00     0.024 A 
ENDBRANCH   8  11
BRANCH   9  17
HETATM   17  C   UNL     1      -4.647  -6.750   0.000  1.00  0.00    -0.019 A 
HETATM   18  C   UNL     1      -5.946  -7.500   0.000  1.00  0.00     0.024 A 
HETATM   19  C   UNL     1      -5.946  -9.000   0.000  1.00  0.00     0.004 A 
HETATM   20  C   UNL     1      -4.647  -9.750   0.000  1.00  0.00     0.001 A 
HETATM   21  C   UNL     1      -3.348  -9.000   0.000  1.00  0.00     0.004 A 
HETATM   22  C   UNL     1      -3.348  -7.500   0.000  1.00  0.00     0.024 A 
ENDBRANCH   9  17
TORSDOF 2
