REMARK  6 active torsions:
REMARK  status: ('A' for Active; 'I' for Inactive)
REMARK    1  A    between atoms: C_7  and  C_9 
REMARK    2  A    between atoms: C_11  and  N_42 
REMARK    3  A    between atoms: C_15  and  C_17 
REMARK       I    between atoms: C_15  and  N_42 
REMARK    4  A    between atoms: C_20  and  C_37 
REMARK    5  A    between atoms: C_29  and  C_31 
REMARK    6  A    between atoms: C_33  and  N_41 
REMARK       I    between atoms: C_37  and  N_41 
ROOT
HETATM    1  C   UNL     1     -13.603  -2.049   0.000  1.00  0.00     0.000 A 
HETATM    2  C   UNL     1     -12.853  -3.348   0.000  1.00  0.00     0.030 A 
HETATM    3  C   UNL     1     -11.353  -3.348   0.000  1.00  0.00     0.030 A 
HETATM    4  C   UNL     1     -10.603  -2.049   0.000  1.00  0.00     0.000 A 
HETATM    5  C   UNL     1     -11.353  -0.750   0.000  1.00  0.00     0.030 A 
HETATM    6  C   UNL     1     -12.853  -0.750   0.000  1.00  0.00     0.030 A 
ENDROOT
BRANCH   1   7
HETATM    7  C   UNL     1     -15.103  -2.049   0.000  1.00  0.00     0.204 C 
HETATM    8  O   UNL     1     -15.853  -0.750   0.000  1.00  0.00    -0.170 OA
HETATM    9  N   UNL     1     -15.853  -3.348   0.000  1.00  0.00    -0.229 NA
BRANCH   9  10
HETATM   10  C   UNL     1     -17.353  -3.348   0.000  1.00  0.00     0.043 A 
HETATM   11  C   UNL     1     -18.103  -4.647   0.000  1.00  0.00     0.066 A 
HETATM   12  C   UNL     1     -19.603  -4.647   0.000  1.00  0.00    -0.003 A 
HETATM   13  C   UNL     1     -20.353  -3.348   0.000  1.00  0.00     0.026 A 
HETATM   14  C   UNL     1     -19.603  -2.049   0.000  1.00  0.00     0.010 A 
HETATM   15  C   UNL     1     -18.103  -2.049   0.000  1.00  0.00     0.042 A 
BRANCH  12  16
HETATM   16  C   UNL     1     -20.353  -5.946   0.000  1.00  0.00     0.154 A 
HETATM   17  N   UNL     1     -21.845  -6.103   0.000  1.00  0.00    -0.231 NA
HETATM   18  C   UNL     1     -22.156  -7.570   0.000  1.00  0.00     0.074 A 
HETATM   19  C   UNL     1     -20.857  -8.320   0.000  1.00  0.00     0.074 A 
HETATM   20  C   UNL     1     -23.455  -8.320   0.000  1.00  0.00     0.047 A 
HETATM   21  C   UNL     1     -20.857  -9.820   0.000  1.00  0.00     0.047 A 
HETATM   22  N   UNL     1     -19.743  -7.316   0.000  1.00  0.00    -0.231 NA
HETATM   23  C   UNL     1     -22.156 -10.570   0.000  1.00  0.00     0.007 A 
HETATM   24  C   UNL     1     -23.455  -9.820   0.000  1.00  0.00     0.007 A 
ENDBRANCH  12  16
ENDBRANCH   9  10
ENDBRANCH   1   7
BRANCH   4  25
HETATM   25  C   UNL     1      -9.103  -2.049   0.000  1.00  0.00     0.204 C 
HETATM   26  O   UNL     1      -8.353  -0.750   0.000  1.00  0.00    -0.170 OA
HETATM   27  N   UNL     1      -8.353  -3.348   0.000  1.00  0.00    -0.229 NA
BRANCH  27  28
HETATM   28  C   UNL     1      -6.853  -3.348   0.000  1.00  0.00     0.043 A 
HETATM   29  C   UNL     1      -6.103  -4.647   0.000  1.00  0.00     0.066 A 
HETATM   30  C   UNL     1      -4.603  -4.647   0.000  1.00  0.00    -0.003 A 
HETATM   31  C   UNL     1      -3.853  -3.348   0.000  1.00  0.00     0.026 A 
HETATM   32  C   UNL     1      -4.603  -2.049   0.000  1.00  0.00     0.010 A 
HETATM   33  C   UNL     1      -6.103  -2.049   0.000  1.00  0.00     0.042 A 
BRANCH  30  34
HETATM   34  C   UNL     1      -3.853  -5.946   0.000  1.00  0.00     0.154 A 
HETATM   35  N   UNL     1      -2.361  -6.103   0.000  1.00  0.00    -0.231 NA
HETATM   36  C   UNL     1      -2.049  -7.570   0.000  1.00  0.00     0.074 A 
HETATM   37  C   UNL     1      -3.348  -8.320   0.000  1.00  0.00     0.074 A 
HETATM   38  C   UNL     1      -0.750  -8.320   0.000  1.00  0.00     0.047 A 
HETATM   39  C   UNL     1      -3.348  -9.820   0.000  1.00  0.00     0.047 A 
HETATM   40  N   UNL     1      -4.463  -7.316   0.000  1.00  0.00    -0.231 NA
HETATM   41  C   UNL     1      -2.049 -10.570   0.000  1.00  0.00     0.007 A 
HETATM   42  C   UNL     1      -0.750  -9.820   0.000  1.00  0.00     0.007 A 
ENDBRANCH  30  34
ENDBRANCH  27  28
ENDBRANCH   4  25
TORSDOF 6
