REMARK  0 active torsions:
REMARK  status: ('A' for Active; 'I' for Inactive)
ROOT
HETATM    1  N   UNL     1       7.245   3.000   0.000  1.00  0.00    -0.239 NA
HETATM    2  N   UNL     1       7.245   6.000   0.000  1.00  0.00    -0.224 NA
HETATM    3  N   UNL     1       9.843   6.000   0.000  1.00  0.00    -0.194 NA
HETATM    4  N   UNL     1      11.142   3.750   0.000  1.00  0.00    -0.199 NA
HETATM    5  C   UNL     1       5.946   5.250   0.000  1.00  0.00     0.096 A 
HETATM    6  C   UNL     1       5.946   3.750   0.000  1.00  0.00     0.095 A 
HETATM    7  C   UNL     1      11.142   5.250   0.000  1.00  0.00     0.240 A 
HETATM    8  C   UNL     1       8.544   5.250   0.000  1.00  0.00     0.185 A 
HETATM    9  C   UNL     1       8.544   3.750   0.000  1.00  0.00     0.148 A 
HETATM   10  C   UNL     1       9.843   3.000   0.000  1.00  0.00     0.174 A 
HETATM   11  N   UNL     1       9.843   1.500   0.000  1.00  0.00    -0.078 NA
HETATM   12  N   UNL     1      12.441   6.000   0.000  1.00  0.00    -0.059 NA
HETATM   13  C   UNL     1       4.647   6.000   0.000  1.00  0.00    -0.007 A 
HETATM   14  C   UNL     1       4.647   7.500   0.000  1.00  0.00     0.030 A 
HETATM   15  C   UNL     1       3.348   8.250   0.000  1.00  0.00     0.044 A 
HETATM   16  C   UNL     1       2.049   7.500   0.000  1.00  0.00     0.307 A 
HETATM   17  C   UNL     1       2.049   6.000   0.000  1.00  0.00     0.065 A 
HETATM   18  C   UNL     1       3.348   5.250   0.000  1.00  0.00    -0.027 A 
HETATM   19  C   UNL     1       4.647   3.000   0.000  1.00  0.00    -0.007 A 
HETATM   20  C   UNL     1       3.348   3.750   0.000  1.00  0.00    -0.027 A 
HETATM   21  C   UNL     1       2.049   3.000   0.000  1.00  0.00     0.065 A 
HETATM   22  C   UNL     1       2.049   1.500   0.000  1.00  0.00     0.307 A 
HETATM   23  C   UNL     1       3.348   0.750   0.000  1.00  0.00     0.044 A 
HETATM   24  C   UNL     1       4.647   1.500   0.000  1.00  0.00     0.030 A 
HETATM   25  N   UNL     1       0.750   8.250   0.000  1.00  0.00     0.616 N 
HETATM   26  N   UNL     1       0.750   0.750   0.000  1.00  0.00     0.616 N 
ENDROOT
TORSDOF 0
