REMARK  0 active torsions:
REMARK  status: ('A' for Active; 'I' for Inactive)
ROOT
HETATM    1  N   UNL     1       4.647   2.250   0.000  1.00  0.00    -0.248 NA
HETATM    2  C   UNL     1       7.245   5.250   0.000  1.00  0.00     0.024 A 
HETATM    3  C   UNL     1       5.946   4.500   0.000  1.00  0.00    -0.023 A 
HETATM    4  C   UNL     1       8.544   4.500   0.000  1.00  0.00     0.009 A 
HETATM    5  C   UNL     1       4.647   5.250   0.000  1.00  0.00     0.047 A 
HETATM    6  C   UNL     1       3.348   4.500   0.000  1.00  0.00    -0.023 A 
HETATM    7  C   UNL     1       2.049   5.250   0.000  1.00  0.00     0.024 A 
HETATM    8  C   UNL     1       0.750   4.500   0.000  1.00  0.00     0.009 A 
HETATM    9  C   UNL     1       8.544   3.000   0.000  1.00  0.00     0.024 A 
HETATM   10  C   UNL     1       5.946   3.000   0.000  1.00  0.00     0.066 A 
HETATM   11  C   UNL     1       3.348   3.000   0.000  1.00  0.00     0.066 A 
HETATM   12  C   UNL     1       0.750   3.000   0.000  1.00  0.00     0.024 A 
HETATM   13  C   UNL     1       7.245   2.250   0.000  1.00  0.00    -0.027 A 
HETATM   14  C   UNL     1       2.049   2.250   0.000  1.00  0.00    -0.027 A 
HETATM   15  C   UNL     1       2.049   0.750   0.000  1.00  0.00     0.028 C 
HETATM   16  C   UNL     1       7.245   0.750   0.000  1.00  0.00     0.028 C 
ENDROOT
TORSDOF 0
