REMARK  1 active torsions:
REMARK  status: ('A' for Active; 'I' for Inactive)
REMARK    1  A    between atoms: C_10  and  C_12 
ROOT
HETATM    1 CL   UNL     1      -5.477  -7.248   0.000  1.00  0.00    -0.088 Cl
HETATM    2 CL   UNL     1      -6.596  -3.804   0.000  1.00  0.00    -0.088 Cl
HETATM    3 CL   UNL     1      -3.135  -6.930   0.000  1.00  0.00    -0.099 Cl
HETATM    4 CL   UNL     1      -4.514  -2.685   0.000  1.00  0.00    -0.099 Cl
HETATM    5  O   UNL     1      -2.620  -1.640   0.000  1.00  0.00    -0.192 OA
HETATM    6 CL   UNL     1       0.020  -3.558   0.000  1.00  0.00    -0.079 Cl
HETATM    7  C   UNL     1      -3.833  -4.021   0.000  1.00  0.00     0.162 A 
HETATM    8  C   UNL     1      -3.370  -5.448   0.000  1.00  0.00     0.162 A 
HETATM    9  C   UNL     1      -2.620  -3.140   0.000  1.00  0.00     0.141 A 
HETATM   10  C   UNL     1      -5.260  -4.485   0.000  1.00  0.00     0.065 A 
HETATM   11  C   UNL     1      -1.406  -4.021   0.000  1.00  0.00     0.103 A 
HETATM   12  C   UNL     1      -4.796  -5.912   0.000  1.00  0.00     0.065 A 
HETATM   13  C   UNL     1      -1.870  -5.448   0.000  1.00  0.00     0.141 A 
HETATM   14  O   UNL     1      -0.988  -6.662   0.000  1.00  0.00    -0.192 OA
ENDROOT
TORSDOF 1
