REMARK  0 active torsions:
REMARK  status: ('A' for Active; 'I' for Inactive)
ROOT
HETATM    1  N   UNL     1      -1.035  -2.888   0.000  1.00  0.00    -0.353 N 
HETATM    2  H   UNL     1      -1.917  -1.674   0.000  1.00  0.00     0.162 HD
HETATM    3  N   UNL     1       0.928  -4.314   0.000  1.00  0.00    -0.249 NA
HETATM    4  C   UNL     1       0.465  -2.888   0.000  1.00  0.00     0.227 A 
HETATM    5  C   UNL     1      -1.499  -4.314   0.000  1.00  0.00     0.063 A 
HETATM    6  C   UNL     1      -0.285  -5.196   0.000  1.00  0.00     0.071 A 
HETATM    7  C   UNL     1      -2.869  -4.925   0.000  1.00  0.00    -0.013 A 
HETATM    8  C   UNL     1      -4.083  -4.043   0.000  1.00  0.00     0.030 A 
HETATM    9  C   UNL     1      -5.453  -4.653   0.000  1.00  0.00     0.038 A 
HETATM   10  C   UNL     1      -0.442  -6.688   0.000  1.00  0.00     0.051 A 
HETATM   11  C   UNL     1      -3.026  -6.416   0.000  1.00  0.00    -0.044 A 
HETATM   12  C   UNL     1      -5.610  -6.145   0.000  1.00  0.00     0.157 A 
HETATM   13  C   UNL     1      -1.812  -7.298   0.000  1.00  0.00     0.028 A 
HETATM   14  C   UNL     1      -4.396  -7.027   0.000  1.00  0.00     0.055 A 
HETATM   15  O   UNL     1      -6.980  -6.755   0.000  1.00  0.00    -0.223 OA
ENDROOT
TORSDOF 0
