REMARK  4 active torsions:
REMARK  status: ('A' for Active; 'I' for Inactive)
REMARK    1  A    between atoms: N_10  and  C_11 
REMARK    2  A    between atoms: C_11  and  C_15 
REMARK    3  A    between atoms: C_12  and  C_13 
REMARK    4  A    between atoms: C_12  and  C_15 
ROOT
HETATM    1  N   UNL     1      -9.835   4.812   0.000  1.00  0.00    -0.078 NA
HETATM    2  C   UNL     1      -9.835   3.312   0.000  1.00  0.00     0.168 A 
HETATM    3  N   UNL     1     -11.134   2.562   0.000  1.00  0.00    -0.229 NA
HETATM    4  C   UNL     1     -11.134   1.062   0.000  1.00  0.00     0.253 A 
HETATM    5  N   UNL     1      -9.835   0.312   0.000  1.00  0.00    -0.226 NA
HETATM    6  C   UNL     1      -8.536   1.062   0.000  1.00  0.00     0.160 A 
HETATM    7  C   UNL     1      -8.536   2.562   0.000  1.00  0.00     0.142 A 
HETATM    8  N   UNL     1      -7.109   3.026   0.000  1.00  0.00    -0.240 NA
HETATM    9  C   UNL     1      -6.228   1.812   0.000  1.00  0.00     0.233 A 
HETATM   10  N   UNL     1      -7.109   0.599   0.000  1.00  0.00    -0.301 N 
ENDROOT
BRANCH  10  11
HETATM   11  C   UNL     1      -6.646  -0.828   0.000  1.00  0.00     0.169 C 
BRANCH  11  12
HETATM   12  C   UNL     1      -5.179  -1.140   0.000  1.00  0.00    -0.127 C 
BRANCH  12  13
HETATM   13  C   UNL     1      -3.712  -1.452   0.000  1.00  0.00     0.101 C 
BRANCH  13  14
HETATM   14  C   UNL     1      -2.708  -0.337   0.000  1.00  0.00     0.195 C 
HETATM   15  O   UNL     1      -1.241  -0.649   0.000  1.00  0.00    -0.220 OA
ENDBRANCH  13  14
ENDBRANCH  12  13
ENDBRANCH  11  12
ENDBRANCH  10  11
TORSDOF 4
