REMARK  2 active torsions:
REMARK  status: ('A' for Active; 'I' for Inactive)
REMARK    1  A    between atoms: N_4  and  C_13 
REMARK    2  A    between atoms: C_13  and  C_14 
ROOT
HETATM    1  S   UNL     1      -0.496   2.071   0.000  1.00  0.00    -0.027 SA
HETATM    2  S   UNL     1       1.001   2.165   0.000  1.00  0.00    -0.024 SA
HETATM    3  C   UNL     1       1.553   0.770   0.000  1.00  0.00     0.154 A 
HETATM    4  N   UNL     1       0.398  -0.186   0.000  1.00  0.00    -0.291 N 
HETATM    5  C   UNL     1      -0.869   0.618   0.000  1.00  0.00     0.180 A 
HETATM    6  S   UNL     1       3.006   0.398   0.000  1.00  0.00    -0.051 SA
HETATM    7  N   UNL     1      -2.264   0.065   0.000  1.00  0.00    -0.195 NA
HETATM    8  C   UNL     1      -3.439   0.997   0.000  1.00  0.00     0.204 A 
HETATM    9  S   UNL     1      -4.834   0.444   0.000  1.00  0.00    -0.038 SA
HETATM   10  N   UNL     1      -3.220   2.481   0.000  1.00  0.00    -0.296 N 
HETATM   11  C   UNL     1      -1.826   3.033   0.000  1.00  0.00     0.118 A 
HETATM   12  C   UNL     1      -4.396   3.412   0.000  1.00  0.00     0.134 C 
ENDROOT
BRANCH   4  13
HETATM   13  C   UNL     1       0.492  -1.683   0.000  1.00  0.00     0.139 C 
BRANCH  13  14
HETATM   14  C   UNL     1       1.836  -2.350   0.000  1.00  0.00     0.138 A 
HETATM   15  C   UNL     1       2.086  -3.829   0.000  1.00  0.00     0.034 A 
HETATM   16  C   UNL     1       3.570  -4.048   0.000  1.00  0.00     0.035 A 
HETATM   17  C   UNL     1       4.237  -2.704   0.000  1.00  0.00     0.142 A 
HETATM   18  O   UNL     1       3.165  -1.655   0.000  1.00  0.00    -0.355 OA
ENDBRANCH  13  14
ENDBRANCH   4  13
TORSDOF 2
