REMARK  4 active torsions:
REMARK  status: ('A' for Active; 'I' for Inactive)
REMARK    1  A    between atoms: N_1  and  C_4 
REMARK    2  A    between atoms: C_6  and  N_9 
REMARK    3  A    between atoms: N_9  and  C_10 
REMARK    4  A    between atoms: C_10  and  C_11 
ROOT
HETATM    1 BR   UNL     2      -6.225  -7.886   0.000  1.00  0.00     0.000 Br
ENDROOT
TORSDOF 4
