REMARK  3 active torsions:
REMARK  status: ('A' for Active; 'I' for Inactive)
REMARK    1  A    between atoms: C_3  and  N_9 
REMARK    2  A    between atoms: C_5  and  N_6 
REMARK    3  A    between atoms: N_9  and  C_10 
ROOT
HETATM    1  S   UNL     1       3.873   3.576   0.000  1.00  0.00    -0.011 SA
HETATM    2  S   UNL     1       5.341   3.264   0.000  1.00  0.00    -0.007 SA
HETATM    3  C   UNL     1       5.497   1.772   0.000  1.00  0.00     0.202 A 
HETATM    4  N   UNL     1       4.127   1.162   0.000  1.00  0.00    -0.197 NA
HETATM    5  C   UNL     1       3.123   2.277   0.000  1.00  0.00     0.180 A 
HETATM    6 BR   UNL     2       6.371   5.522   0.000  1.00  0.00    -0.003 Br
ENDROOT
BRANCH   3   7
HETATM    7  N   UNL     1       6.796   1.022   0.000  1.00  0.00    -0.229 NA
BRANCH   7   8
HETATM    8  C   UNL     1       8.096   1.772   0.000  1.00  0.00     0.044 A 
HETATM    9  C   UNL     1       8.096   3.272   0.000  1.00  0.00     0.042 A 
HETATM   10  C   UNL     1       9.395   4.022   0.000  1.00  0.00     0.011 A 
HETATM   11  C   UNL     1      10.694   3.272   0.000  1.00  0.00     0.034 A 
HETATM   12  C   UNL     1      10.694   1.772   0.000  1.00  0.00     0.019 A 
HETATM   13  C   UNL     1       9.395   1.022   0.000  1.00  0.00     0.075 A 
HETATM   14 CL   UNL     1      11.993   1.022   0.000  1.00  0.00    -0.091 Cl
ENDBRANCH   7   8
ENDBRANCH   3   7
BRANCH   5  15
HETATM   15  N   UNL     1       1.632   2.120   0.000  1.00  0.00    -0.324 N 
HETATM   16  C   UNL     1       0.750   3.334   0.000  1.00  0.00     0.128 C 
HETATM   17  C   UNL     1       1.022   0.750   0.000  1.00  0.00     0.128 C 
ENDBRANCH   5  15
TORSDOF 3
