REMARK  1 active torsions:
REMARK  status: ('A' for Active; 'I' for Inactive)
REMARK    1  A    between atoms: N_6  and  C_12 
ROOT
HETATM    1  N   UNL     1      -7.471   3.693   0.000  1.00  0.00    -0.234 NA
HETATM    2  S   UNL     1      -6.172   5.943   0.000  1.00  0.00    -0.056 SA
HETATM    3  N   UNL     1      -6.172   1.443   0.000  1.00  0.00    -0.339 N 
HETATM    4  H   UNL     1      -6.172  -0.057   0.000  1.00  0.00     0.164 HD
HETATM    5  N   UNL     1      -3.447   4.156   0.000  1.00  0.00    -0.240 NA
HETATM    6  N   UNL     1      -3.447   1.729   0.000  1.00  0.00    -0.300 N 
HETATM    7  C   UNL     1      -6.172   4.443   0.000  1.00  0.00     0.153 A 
HETATM    8  C   UNL     1      -4.873   3.693   0.000  1.00  0.00     0.138 A 
HETATM    9  C   UNL     1      -4.873   2.193   0.000  1.00  0.00     0.140 A 
HETATM   10  C   UNL     1      -2.565   2.943   0.000  1.00  0.00     0.236 A 
HETATM   11  C   UNL     1      -7.471   2.193   0.000  1.00  0.00     0.230 A 
ENDROOT
BRANCH   6  12
HETATM   12  C   UNL     1      -2.983   0.303   0.000  1.00  0.00     0.018 C 
HETATM   13  C   UNL     1      -1.516  -0.009   0.000  1.00  0.00     0.045 C 
HETATM   14  C   UNL     1      -3.987  -0.812   0.000  1.00  0.00     0.045 C 
ENDBRANCH   6  12
TORSDOF 1
