REMARK  1 active torsions:
REMARK  status: ('A' for Active; 'I' for Inactive)
REMARK    1  A    between atoms: N_6  and  C_8 
ROOT
HETATM    1  C   UNL     1      -6.221  -0.275   0.000  1.00  0.00     0.729 A 
HETATM    2  N   UNL     1      -4.922   0.475   0.000  1.00  0.00    -0.049 NA
HETATM    3  C   UNL     1      -3.623  -0.275   0.000  1.00  0.00     0.166 A 
HETATM    4 CL   UNL     1      -2.324   0.475   0.000  1.00  0.00    -0.060 Cl
HETATM    5  C   UNL     1      -3.623  -1.774   0.000  1.00  0.00     0.095 A 
HETATM    6 BR   UNL     1      -2.324  -2.525   0.000  1.00  0.00    -0.044 Br
HETATM    7  C   UNL     1      -4.922  -2.525   0.000  1.00  0.00     0.178 A 
HETATM    8  N   UNL     1      -4.922  -4.024   0.000  1.00  0.00    -0.078 NA
HETATM    9  N   UNL     1      -6.221  -1.774   0.000  1.00  0.00    -0.046 NA
ENDROOT
BRANCH   1  10
HETATM   10  N   UNL     1      -7.520   0.475   0.000  1.00  0.00    -0.179 N 
HETATM   11  C   UNL     1      -8.819  -0.275   0.000  1.00  0.00     0.143 A 
HETATM   12  C   UNL     1     -10.118   0.475   0.000  1.00  0.00     0.122 A 
HETATM   13  N   UNL     1     -10.118   1.976   0.000  1.00  0.00    -0.364 N 
HETATM   14  C   UNL     1      -8.819   2.725   0.000  1.00  0.00     0.122 A 
HETATM   15  C   UNL     1     -11.417   2.725   0.000  1.00  0.00     0.121 C 
HETATM   16  C   UNL     1      -7.520   1.976   0.000  1.00  0.00     0.143 A 
ENDBRANCH   1  10
TORSDOF 1
