REMARK  6 active torsions:
REMARK  status: ('A' for Active; 'I' for Inactive)
REMARK    1  A    between atoms: C_9  and  C_10 
REMARK    2  A    between atoms: C_10  and  C_20 
REMARK    3  A    between atoms: C_11  and  C_24 
REMARK    4  A    between atoms: C_12  and  C_24 
REMARK    5  A    between atoms: C_20  and  O_21 
REMARK    6  A    between atoms: O_21  and  C_22 
ROOT
HETATM    1  C   UNL     1      -1.933  -1.337   0.000  1.00  0.00     0.033 A 
HETATM    2  C   UNL     1      -1.478   0.092   0.000  1.00  0.00    -0.007 A 
HETATM    3  C   UNL     1      -2.488   1.201   0.000  1.00  0.00     0.028 A 
HETATM    4  C   UNL     1      -3.953   0.880   0.000  1.00  0.00     0.005 A 
HETATM    5  C   UNL     1      -4.408  -0.549   0.000  1.00  0.00     0.007 A 
HETATM    6  C   UNL     1      -3.398  -1.658   0.000  1.00  0.00     0.043 A 
HETATM    7  N   UNL     1      -0.714  -2.212   0.000  1.00  0.00    -0.329 N 
HETATM    8  C   UNL     1      -0.705  -3.712   0.000  1.00  0.00     0.130 C 
HETATM    9  C   UNL     1       0.494  -1.323   0.000  1.00  0.00     0.061 A 
HETATM   10  C   UNL     1       0.022   0.101   0.000  1.00  0.00     0.037 A 
ENDROOT
BRANCH  10  11
HETATM   11  C   UNL     1       0.897   1.320   0.000  1.00  0.00     0.126 C 
HETATM   12  O   UNL     1       2.389   1.172   0.000  1.00  0.00    -0.191 OA
BRANCH  11  13
HETATM   13  C   UNL     1       0.279   2.686   0.000  1.00  0.00     0.006 A 
HETATM   14  C   UNL     1      -1.214   2.834   0.000  1.00  0.00     0.149 A 
HETATM   15  N   UNL     1      -1.833   4.201   0.000  1.00  0.00    -0.275 NA
HETATM   16  C   UNL     1      -0.958   5.420   0.000  1.00  0.00     0.033 A 
HETATM   17  C   UNL     1       0.535   5.272   0.000  1.00  0.00     0.045 A 
HETATM   18  C   UNL     1      -1.576   6.786   0.000  1.00  0.00     0.047 C 
HETATM   19  C   UNL     1       1.153   3.905   0.000  1.00  0.00     0.032 A 
ENDBRANCH  11  13
ENDBRANCH  10  11
BRANCH   9  20
HETATM   20  C   UNL     1       1.924  -1.778   0.000  1.00  0.00     0.043 C 
HETATM   21  C   UNL     1       3.032  -0.768   0.000  1.00  0.00     0.037 C 
BRANCH  20  22
HETATM   22  C   UNL     1       2.244  -3.243   0.000  1.00  0.00     0.226 C 
HETATM   23  O   UNL     1       1.135  -4.254   0.000  1.00  0.00    -0.164 OA
BRANCH  22  24
HETATM   24  O   UNL     1       3.674  -3.698   0.000  1.00  0.00    -0.309 OA
BRANCH  24  25
HETATM   25  C   UNL     1       3.994  -5.164   0.000  1.00  0.00     0.151 C 
HETATM   26  C   UNL     1       2.885  -6.174   0.000  1.00  0.00     0.035 C 
ENDBRANCH  24  25
ENDBRANCH  22  24
ENDBRANCH  20  22
ENDBRANCH   9  20
TORSDOF 6
