REMARK  5 active torsions:
REMARK  status: ('A' for Active; 'I' for Inactive)
REMARK    1  A    between atoms: N_2  and  C_16 
REMARK    2  A    between atoms: N_3  and  C_18 
REMARK    3  A    between atoms: N_4  and  C_19 
REMARK    4  A    between atoms: N_5  and  C_22 
REMARK    5  A    between atoms: C_18  and  C_19 
ROOT
HETATM    1  C   UNL     1       4.821   6.649   0.000  1.00  0.00     0.126 C 
ENDROOT
BRANCH   1   2
HETATM    2  N   UNL     1       3.522   5.899   0.000  1.00  0.00    -0.347 N 
HETATM    3  C   UNL     1       2.223   6.649   0.000  1.00  0.00     0.141 A 
HETATM    4  C   UNL     1       0.924   5.899   0.000  1.00  0.00     0.036 A 
HETATM    5  N   UNL     1       0.924   4.399   0.000  1.00  0.00    -0.321 N 
HETATM    6  C   UNL     1      -0.375   6.649   0.000  1.00  0.00     0.047 C 
HETATM    7  C   UNL     1       2.223   3.650   0.000  1.00  0.00     0.142 A 
HETATM    8  C   UNL     1       3.522   4.399   0.000  1.00  0.00     0.034 A 
HETATM    9  C   UNL     1       4.821   3.650   0.000  1.00  0.00     0.047 C 
BRANCH   5  10
HETATM   10  C   UNL     1      -0.375   3.650   0.000  1.00  0.00     0.289 C 
HETATM   11  O   UNL     1      -1.674   4.399   0.000  1.00  0.00    -0.193 OA
ENDBRANCH   5  10
ENDBRANCH   1   2
BRANCH   1  12
HETATM   12  C   UNL     1       4.821   8.149   0.000  1.00  0.00     0.126 C 
BRANCH  12  13
HETATM   13  N   UNL     1       6.120   8.899   0.000  1.00  0.00    -0.347 N 
HETATM   14  C   UNL     1       6.120  10.399   0.000  1.00  0.00     0.141 A 
HETATM   15  C   UNL     1       7.419  11.149   0.000  1.00  0.00     0.036 A 
HETATM   16  N   UNL     1       8.718  10.399   0.000  1.00  0.00    -0.321 N 
HETATM   17  C   UNL     1       7.419  12.649   0.000  1.00  0.00     0.047 C 
HETATM   18  C   UNL     1       8.718   8.899   0.000  1.00  0.00     0.142 A 
HETATM   19  C   UNL     1       7.419   8.149   0.000  1.00  0.00     0.034 A 
HETATM   20  C   UNL     1       7.419   6.649   0.000  1.00  0.00     0.047 C 
BRANCH  16  21
HETATM   21  C   UNL     1      10.017  11.149   0.000  1.00  0.00     0.289 C 
HETATM   22  O   UNL     1      10.017  12.649   0.000  1.00  0.00    -0.193 OA
ENDBRANCH  16  21
ENDBRANCH  12  13
ENDBRANCH   1  12
TORSDOF 5
