REMARK  2 active torsions:
REMARK  status: ('A' for Active; 'I' for Inactive)
REMARK    1  A    between atoms: C_2  and  C_10 
REMARK    2  A    between atoms: C_10  and  O_12 
ROOT
HETATM    1  C   UNL     1      -2.223  -3.650   0.000  1.00  0.00     0.083 A 
HETATM    2  C   UNL     1      -0.924  -4.399   0.000  1.00  0.00     0.018 A 
HETATM    3  C   UNL     1      -3.522  -4.399   0.000  1.00  0.00     0.140 A 
HETATM    4  C   UNL     1      -0.924  -5.899   0.000  1.00  0.00     0.083 A 
HETATM    5  C   UNL     1      -3.522  -5.899   0.000  1.00  0.00     0.174 A 
HETATM    6  C   UNL     1      -2.223  -6.649   0.000  1.00  0.00     0.140 A 
HETATM    7  O   UNL     1      -4.821  -3.650   0.000  1.00  0.00    -0.192 OA
HETATM    8  O   UNL     1      -4.821  -6.649   0.000  1.00  0.00    -0.186 OA
HETATM    9  O   UNL     1      -2.223  -8.149   0.000  1.00  0.00    -0.192 OA
ENDROOT
BRANCH   2  10
HETATM   10  C   UNL     1       0.375  -3.650   0.000  1.00  0.00     0.221 C 
HETATM   11  O   UNL     1       1.674  -4.399   0.000  1.00  0.00    -0.164 OA
BRANCH  10  12
HETATM   12  O   UNL     1       0.375  -2.150   0.000  1.00  0.00    -0.307 OA
HETATM   13  C   UNL     1      -0.924  -1.399   0.000  1.00  0.00     0.184 C 
ENDBRANCH  10  12
ENDBRANCH   2  10
TORSDOF 2
