REMARK  1 active torsions:
REMARK  status: ('A' for Active; 'I' for Inactive)
REMARK    1  A    between atoms: C_6  and  C_9 
ROOT
HETATM    1  H   UNL     1      -5.284   2.185   0.000  1.00  0.00     0.167 HD
HETATM    2  N   UNL     1      -6.399   1.181   0.000  1.00  0.00    -0.342 N 
HETATM    3  N   UNL     1      -7.612  -0.921   0.000  1.00  0.00    -0.233 NA
HETATM    4  C   UNL     1      -6.242  -0.311   0.000  1.00  0.00     0.132 A 
HETATM    5  C   UNL     1      -8.616   2.792   0.000  1.00  0.00     0.045 A 
HETATM    6  C   UNL     1     -10.116   2.792   0.000  1.00  0.00     0.007 A 
HETATM    7  C   UNL     1      -7.866   1.493   0.000  1.00  0.00     0.048 A 
HETATM    8  C   UNL     1      -8.616   0.194   0.000  1.00  0.00     0.072 A 
HETATM    9  C   UNL     1     -10.866   1.493   0.000  1.00  0.00     0.007 A 
HETATM   10  C   UNL     1     -10.116   0.194   0.000  1.00  0.00     0.047 A 
ENDROOT
BRANCH   4  11
HETATM   11  C   UNL     1      -4.943  -1.061   0.000  1.00  0.00    -0.006 A 
HETATM   12  C   UNL     1      -3.644  -0.311   0.000  1.00  0.00     0.051 A 
HETATM   13  C   UNL     1      -2.345  -1.061   0.000  1.00  0.00     0.124 A 
HETATM   14  N   UNL     1      -2.345  -2.561   0.000  1.00  0.00    -0.295 NA
HETATM   15  C   UNL     1      -3.644  -3.311   0.000  1.00  0.00     0.124 A 
HETATM   16  C   UNL     1      -4.943  -2.561   0.000  1.00  0.00     0.051 A 
ENDBRANCH   4  11
TORSDOF 1
