REMARK  1 active torsions:
REMARK  status: ('A' for Active; 'I' for Inactive)
REMARK    1  A    between atoms: C_14  and  C_15 
ROOT
HETATM    1  S   UNL     1      -6.132  -1.036   0.000  1.00  0.00    -0.070 SA
HETATM    2  N   UNL     1      -6.132  -3.463   0.000  1.00  0.00    -0.242 NA
HETATM    3  C   UNL     1      -8.857  -0.750   0.000  1.00  0.00     0.034 A 
HETATM    4  C   UNL     1      -7.558  -1.500   0.000  1.00  0.00     0.022 A 
HETATM    5  C   UNL     1     -10.156  -1.500   0.000  1.00  0.00     0.006 A 
HETATM    6  C   UNL     1      -7.558  -3.000   0.000  1.00  0.00     0.062 A 
HETATM    7  C   UNL     1     -10.156  -3.000   0.000  1.00  0.00     0.007 A 
HETATM    8  C   UNL     1      -8.857  -3.750   0.000  1.00  0.00     0.046 A 
HETATM    9  C   UNL     1      -5.250  -2.250   0.000  1.00  0.00     0.123 A 
ENDROOT
BRANCH   9  10
HETATM   10  C   UNL     1      -3.750  -2.250   0.000  1.00  0.00     0.077 A 
HETATM   11  N   UNL     1      -3.000  -0.951   0.000  1.00  0.00    -0.273 NA
HETATM   12  C   UNL     1      -1.500  -0.951   0.000  1.00  0.00     0.125 A 
HETATM   13  C   UNL     1      -0.750  -2.250   0.000  1.00  0.00     0.027 A 
HETATM   14  C   UNL     1      -1.500  -3.549   0.000  1.00  0.00     0.008 A 
HETATM   15  C   UNL     1      -3.000  -3.549   0.000  1.00  0.00     0.048 A 
ENDBRANCH   9  10
TORSDOF 1
