REMARK  0 active torsions:
REMARK  status: ('A' for Active; 'I' for Inactive)
ROOT
HETATM    1 CL   UNL     1       0.750   1.890   0.000  1.00  0.00    -0.041 Cl
HETATM    2  N   UNL     1       2.049   4.140   0.000  1.00  0.00    -0.204 NA
HETATM    3  N   UNL     1       3.348   1.890   0.000  1.00  0.00    -0.198 NA
HETATM    4 CL   UNL     1       3.348   6.390   0.000  1.00  0.00    -0.060 Cl
HETATM    5  N   UNL     1       6.074   4.604   0.000  1.00  0.00    -0.314 N 
HETATM    6  H   UNL     1       6.537   6.030   0.000  1.00  0.00     0.170 HD
HETATM    7  N   UNL     1       6.074   2.177   0.000  1.00  0.00    -0.302 N 
HETATM    8  H   UNL     1       6.537   0.750   0.000  1.00  0.00     0.171 HD
HETATM    9  O   UNL     1       8.455   3.390   0.000  1.00  0.00    -0.151 OA
HETATM   10  C   UNL     1       3.348   4.890   0.000  1.00  0.00     0.159 A 
HETATM   11  C   UNL     1       4.647   4.140   0.000  1.00  0.00     0.123 A 
HETATM   12  C   UNL     1       4.647   2.640   0.000  1.00  0.00     0.164 A 
HETATM   13  C   UNL     1       6.955   3.390   0.000  1.00  0.00     0.258 A 
HETATM   14  C   UNL     1       2.049   2.640   0.000  1.00  0.00     0.226 A 
ENDROOT
TORSDOF 0
