REMARK  2 active torsions:
REMARK  status: ('A' for Active; 'I' for Inactive)
REMARK    1  A    between atoms: N_3  and  C_11 
REMARK    2  A    between atoms: C_8  and  C_19 
ROOT
HETATM    1 CL   UNL     1      -8.387  -5.757   0.000  1.00  0.00    -0.008 Cl
HETATM    2 CL   UNL     1      -3.191  -8.757   0.000  1.00  0.00    -0.086 Cl
HETATM    3  C   UNL     1      -5.789  -5.757   0.000  1.00  0.00     0.085 A 
HETATM    4  C   UNL     1      -7.088  -6.507   0.000  1.00  0.00     0.064 A 
HETATM    5  C   UNL     1      -4.490  -6.507   0.000  1.00  0.00     0.069 A 
HETATM    6  C   UNL     1      -4.490  -8.007   0.000  1.00  0.00     0.054 A 
HETATM    7  C   UNL     1      -7.088  -8.007   0.000  1.00  0.00     0.102 A 
HETATM    8  C   UNL     1      -5.789  -8.757   0.000  1.00  0.00     0.080 A 
HETATM    9  S   UNL     1      -8.387  -8.757   0.000  1.00  0.00     0.312 S 
HETATM   10  O   UNL     1      -9.137  -7.458   0.000  1.00  0.00    -0.165 OA
HETATM   11  O   UNL     1      -9.686  -9.507   0.000  1.00  0.00    -0.192 OA
HETATM   12  O   UNL     1      -7.637 -10.056   0.000  1.00  0.00    -0.192 OA
ENDROOT
BRANCH   5  13
HETATM   13  N   UNL     1      -3.191  -5.757   0.000  1.00  0.00    -0.238 N 
HETATM   14  N   UNL     1      -1.821  -6.367   0.000  1.00  0.00    -0.106 NA
HETATM   15  C   UNL     1      -0.817  -5.252   0.000  1.00  0.00     0.191 A 
HETATM   16  C   UNL     1      -1.567  -3.953   0.000  1.00  0.00     0.105 A 
HETATM   17  C   UNL     1      -3.034  -4.265   0.000  1.00  0.00     0.188 A 
HETATM   18  O   UNL     1      -4.149  -3.261   0.000  1.00  0.00    -0.174 OA
BRANCH  15  19
HETATM   19  C   UNL     1       0.675  -5.409   0.000  1.00  0.00     0.204 C 
HETATM   20  O   UNL     1       1.556  -4.196   0.000  1.00  0.00    -0.646 OA
HETATM   21  O   UNL     1       1.285  -6.779   0.000  1.00  0.00    -0.646 OA
ENDBRANCH  15  19
ENDBRANCH   5  13
TORSDOF 2
