REMARK  6 active torsions:
REMARK  status: ('A' for Active; 'I' for Inactive)
REMARK    1  A    between atoms: N_1  and  C_18 
REMARK    2  A    between atoms: N_1  and  N_2 
REMARK    3  A    between atoms: N_2  and  C_7 
REMARK    4  A    between atoms: N_3  and  C_6 
REMARK    5  A    between atoms: N_3  and  N_4 
REMARK    6  A    between atoms: N_4  and  C_12 
ROOT
HETATM    1  C   UNL     1      -8.544  -3.000   0.000  1.00  0.00     0.167 A 
HETATM    2  C   UNL     1      -7.245  -3.750   0.000  1.00  0.00     0.108 A 
HETATM    3  C   UNL     1      -9.843  -3.750   0.000  1.00  0.00     0.150 A 
HETATM    4  C   UNL     1      -7.245  -5.250   0.000  1.00  0.00     0.057 A 
HETATM    5  C   UNL     1      -9.843  -5.250   0.000  1.00  0.00     0.130 A 
HETATM    6  C   UNL     1      -8.544  -6.000   0.000  1.00  0.00     0.062 A 
HETATM    7  O   UNL     1     -11.142  -6.000   0.000  1.00  0.00    -0.193 OA
HETATM    8  O   UNL     1      -8.544  -1.500   0.000  1.00  0.00    -0.187 OA
ENDROOT
BRANCH   2   9
HETATM    9  N   UNL     1      -5.946  -3.000   0.000  1.00  0.00    -0.151 NA
BRANCH   9  10
HETATM   10  N   UNL     1      -4.647  -3.750   0.000  1.00  0.00    -0.157 NA
BRANCH  10  11
HETATM   11  C   UNL     1      -3.348  -3.000   0.000  1.00  0.00     0.058 A 
HETATM   12  C   UNL     1      -3.348  -1.500   0.000  1.00  0.00     0.043 A 
HETATM   13  C   UNL     1      -2.049  -0.750   0.000  1.00  0.00     0.006 A 
HETATM   14  C   UNL     1      -0.750  -1.500   0.000  1.00  0.00     0.001 A 
HETATM   15  C   UNL     1      -0.750  -3.000   0.000  1.00  0.00     0.006 A 
HETATM   16  C   UNL     1      -2.049  -3.750   0.000  1.00  0.00     0.043 A 
ENDBRANCH  10  11
ENDBRANCH   9  10
ENDBRANCH   2   9
BRANCH   3  17
HETATM   17  N   UNL     1     -11.142  -3.000   0.000  1.00  0.00    -0.145 NA
BRANCH  17  18
HETATM   18  N   UNL     1     -12.441  -3.750   0.000  1.00  0.00    -0.157 NA
BRANCH  18  19
HETATM   19  C   UNL     1     -13.740  -3.000   0.000  1.00  0.00     0.058 A 
HETATM   20  C   UNL     1     -13.740  -1.500   0.000  1.00  0.00     0.043 A 
HETATM   21  C   UNL     1     -15.039  -0.750   0.000  1.00  0.00     0.006 A 
HETATM   22  C   UNL     1     -16.338  -1.500   0.000  1.00  0.00     0.001 A 
HETATM   23  C   UNL     1     -16.338  -3.000   0.000  1.00  0.00     0.006 A 
HETATM   24  C   UNL     1     -15.039  -3.750   0.000  1.00  0.00     0.043 A 
ENDBRANCH  18  19
ENDBRANCH  17  18
ENDBRANCH   3  17
TORSDOF 6
