REMARK  4 active torsions:
REMARK  status: ('A' for Active; 'I' for Inactive)
REMARK    1  A    between atoms: C_3  and  N_7 
REMARK    2  A    between atoms: N_7  and  C_8 
REMARK    3  A    between atoms: C_8  and  C_9 
REMARK    4  A    between atoms: C_9  and  C_10 
ROOT
HETATM    1  C   UNL     1      -8.544  -0.750   0.000  1.00  0.00     0.041 A 
HETATM    2  C   UNL     1      -9.843  -1.500   0.000  1.00  0.00     0.006 A 
HETATM    3  C   UNL     1      -7.245  -1.500   0.000  1.00  0.00     0.032 A 
HETATM    4  C   UNL     1      -7.245  -3.000   0.000  1.00  0.00     0.041 A 
HETATM    5  C   UNL     1      -9.843  -3.000   0.000  1.00  0.00     0.001 A 
HETATM    6  C   UNL     1      -8.544  -3.750   0.000  1.00  0.00     0.006 A 
ENDROOT
BRANCH   3   7
HETATM    7  N   UNL     1      -5.946  -0.750   0.000  1.00  0.00    -0.279 NA
BRANCH   7   8
HETATM    8  C   UNL     1      -4.647  -1.500   0.000  1.00  0.00     0.136 C 
BRANCH   8   9
HETATM    9  C   UNL     1      -3.348  -0.750   0.000  1.00  0.00     0.124 C 
BRANCH   9  10
HETATM   10  C   UNL     1      -2.049  -1.500   0.000  1.00  0.00     0.187 C 
HETATM   11  O   UNL     1      -0.750  -0.750   0.000  1.00  0.00    -0.647 OA
HETATM   12  O   UNL     1      -2.049  -3.000   0.000  1.00  0.00    -0.647 OA
ENDBRANCH   9  10
ENDBRANCH   8   9
ENDBRANCH   7   8
ENDBRANCH   3   7
TORSDOF 4
