REMARK  2 active torsions:
REMARK  status: ('A' for Active; 'I' for Inactive)
REMARK    1  A    between atoms: AS_2  and  C_3 
REMARK    2  A    between atoms: C_8  and  N_13 
REMARK       I    between atoms: C_9  and  N_13 
ROOT
HETATM    1  C   UNL     1       3.750   2.250   0.000  1.00  0.00    -0.051 A 
HETATM    2  C   UNL     1       4.500   3.549   0.000  1.00  0.00     0.027 A 
HETATM    3  C   UNL     1       4.500   0.951   0.000  1.00  0.00     0.027 A 
HETATM    4  C   UNL     1       6.000   3.549   0.000  1.00  0.00     0.046 A 
HETATM    5  C   UNL     1       6.000   0.951   0.000  1.00  0.00     0.046 A 
HETATM    6  C   UNL     1       6.750   2.250   0.000  1.00  0.00     0.039 A 
ENDROOT
BRANCH   1   7
HETATM    7 AS   UNL     1       2.250   2.250   0.000  1.00  0.00     0.000 As
HETATM    8  O   UNL     1       2.250   3.750   0.000  1.00  0.00     0.000 OA
HETATM    9  O   UNL     1       0.750   2.250   0.000  1.00  0.00     0.000 OA
HETATM   10  O   UNL     1       2.250   0.750   0.000  1.00  0.00     0.000 OA
ENDBRANCH   1   7
BRANCH   6  11
HETATM   11  N   UNL     1       8.250   2.250   0.000  1.00  0.00    -0.232 NA
HETATM   12  C   UNL     1       9.000   3.549   0.000  1.00  0.00     0.189 C 
HETATM   13  O   UNL     1       8.250   4.848   0.000  1.00  0.00    -0.174 OA
HETATM   14  C   UNL     1      10.500   3.549   0.000  1.00  0.00     0.083 C 
ENDBRANCH   6  11
TORSDOF 2
