REMARK  6 active torsions:
REMARK  status: ('A' for Active; 'I' for Inactive)
REMARK    1  A    between atoms: C_2  and  C_8 
REMARK    2  A    between atoms: C_4  and  C_9 
REMARK       I    between atoms: N_6  and  C_10 
REMARK    3  A    between atoms: C_8  and  C_13 
REMARK    4  A    between atoms: C_9  and  C_19 
REMARK    5  A    between atoms: C_10  and  O_12 
REMARK    6  A    between atoms: O_12  and  C_25 
ROOT
HETATM    1  C   UNL     1       5.946   3.750   0.000  1.00  0.00     0.130 A 
HETATM    2  C   UNL     1       5.946   5.250   0.000  1.00  0.00     0.003 A 
HETATM    3  C   UNL     1       7.245   6.000   0.000  1.00  0.00     0.119 A 
HETATM    4  C   UNL     1       8.544   5.250   0.000  1.00  0.00     0.003 A 
HETATM    5  C   UNL     1       8.544   3.750   0.000  1.00  0.00     0.130 A 
HETATM    6  N   UNL     1       7.245   3.000   0.000  1.00  0.00    -0.300 N 
HETATM    7  O   UNL     1       7.245   7.500   0.000  1.00  0.00    -0.191 OA
HETATM    8  C   UNL     1       7.245   1.500   0.000  1.00  0.00     0.296 C 
HETATM    9  O   UNL     1       5.946   0.750   0.000  1.00  0.00    -0.143 OA
ENDROOT
BRANCH   2  10
HETATM   10  C   UNL     1       4.647   6.000   0.000  1.00  0.00     0.026 C 
BRANCH  10  11
HETATM   11  C   UNL     1       3.348   5.250   0.000  1.00  0.00     0.004 A 
HETATM   12  C   UNL     1       2.049   6.000   0.000  1.00  0.00     0.000 A 
HETATM   13  C   UNL     1       0.750   5.250   0.000  1.00  0.00     0.000 A 
HETATM   14  C   UNL     1       0.750   3.750   0.000  1.00  0.00     0.000 A 
HETATM   15  C   UNL     1       2.049   3.000   0.000  1.00  0.00     0.000 A 
HETATM   16  C   UNL     1       3.348   3.750   0.000  1.00  0.00     0.000 A 
ENDBRANCH  10  11
ENDBRANCH   2  10
BRANCH   4  17
HETATM   17  C   UNL     1       9.843   6.000   0.000  1.00  0.00     0.026 C 
BRANCH  17  18
HETATM   18  C   UNL     1      11.142   5.250   0.000  1.00  0.00     0.004 A 
HETATM   19  C   UNL     1      12.441   6.000   0.000  1.00  0.00     0.000 A 
HETATM   20  C   UNL     1      13.740   5.250   0.000  1.00  0.00     0.000 A 
HETATM   21  C   UNL     1      13.740   3.750   0.000  1.00  0.00     0.000 A 
HETATM   22  C   UNL     1      12.441   3.000   0.000  1.00  0.00     0.000 A 
HETATM   23  C   UNL     1      11.142   3.750   0.000  1.00  0.00     0.000 A 
ENDBRANCH  17  18
ENDBRANCH   4  17
BRANCH   8  24
HETATM   24  O   UNL     1       8.544   0.750   0.000  1.00  0.00    -0.296 OA
BRANCH  24  25
HETATM   25  C   UNL     1       9.843   1.500   0.000  1.00  0.00     0.153 C 
HETATM   26  C   UNL     1      11.142   0.750   0.000  1.00  0.00     0.035 C 
ENDBRANCH  24  25
ENDBRANCH   8  24
TORSDOF 6
