REMARK  2 active torsions:
REMARK  status: ('A' for Active; 'I' for Inactive)
REMARK    1  A    between atoms: C_3  and  C_16 
REMARK    2  A    between atoms: C_11  and  N_12 
ROOT
HETATM    1  N   UNL     1       4.164   7.904   0.000  1.00  0.00    -0.205 N 
HETATM    2  N   UNL     1       2.697   7.593   0.000  1.00  0.00    -0.149 NA
HETATM    3  C   UNL     1       2.540   6.101   0.000  1.00  0.00     0.159 A 
HETATM    4  N   UNL     1       3.910   5.491   0.000  1.00  0.00    -0.290 N 
HETATM    5  C   UNL     1       4.914   6.605   0.000  1.00  0.00     0.177 A 
HETATM    6  S   UNL     1       6.406   6.449   0.000  1.00  0.00    -0.030 SA
HETATM    7  C   UNL     1       7.063   7.797   0.000  1.00  0.00     0.132 A 
HETATM    8  N   UNL     1       6.359   9.121   0.000  1.00  0.00    -0.299 N 
HETATM    9  C   UNL     1       7.401  10.200   0.000  1.00  0.00     0.235 A 
HETATM   10  N   UNL     1       8.749   9.543   0.000  1.00  0.00    -0.222 NA
HETATM   11  C   UNL     1       8.540   8.057   0.000  1.00  0.00     0.227 A 
HETATM   12  C   UNL     1       4.874   9.330   0.000  1.00  0.00     0.237 A 
HETATM   13  C   UNL     1       4.222   4.023   0.000  1.00  0.00     0.134 C 
ENDROOT
BRANCH   3  14
HETATM   14  C   UNL     1       1.241   5.351   0.000  1.00  0.00     0.015 A 
HETATM   15  C   UNL     1      -0.058   6.101   0.000  1.00  0.00     0.029 A 
HETATM   16  C   UNL     1      -1.357   5.351   0.000  1.00  0.00     0.030 A 
HETATM   17  C   UNL     1      -1.357   3.851   0.000  1.00  0.00     0.121 A 
HETATM   18  N   UNL     1      -0.058   3.101   0.000  1.00  0.00    -0.291 NA
HETATM   19  C   UNL     1       1.241   3.851   0.000  1.00  0.00     0.145 A 
ENDBRANCH   3  14
BRANCH  11  20
HETATM   20  N   UNL     1       9.620   7.015   0.000  1.00  0.00    -0.093 N 
HETATM   21  O   UNL     1       9.257   5.560   0.000  1.00  0.00    -0.530 OA
HETATM   22  O   UNL     1      11.061   7.429   0.000  1.00  0.00    -0.530 OA
ENDBRANCH  11  20
TORSDOF 2
