REMARK  4 active torsions:
REMARK  status: ('A' for Active; 'I' for Inactive)
REMARK    1  A    between atoms: C_6  and  C_20 
REMARK    2  A    between atoms: C_10  and  C_20 
REMARK    3  A    between atoms: C_11  and  C_18 
REMARK    4  A    between atoms: C_12  and  C_18 
ROOT
HETATM    1  N   UNL     1      -6.121  -4.400   0.000  1.00  0.00    -0.132 NA
HETATM    2  N   UNL     1      -4.654  -4.088   0.000  1.00  0.00    -0.132 NA
HETATM    3  N   UNL     1      -4.908  -6.502   0.000  1.00  0.00    -0.180 N 
HETATM    4  C   UNL     1      -3.904  -5.387   0.000  1.00  0.00     0.165 A 
HETATM    5  C   UNL     1      -6.278  -5.892   0.000  1.00  0.00     0.165 A 
HETATM    6  N   UNL     1      -4.596  -7.969   0.000  1.00  0.00    -0.039 N 
ENDROOT
BRANCH   4   7
HETATM    7  C   UNL     1      -2.412  -5.544   0.000  1.00  0.00     0.068 C 
BRANCH   7   8
HETATM    8  C   UNL     1      -1.530  -4.330   0.000  1.00  0.00     0.008 A 
HETATM    9  C   UNL     1      -2.140  -2.960   0.000  1.00  0.00     0.000 A 
HETATM   10  C   UNL     1      -1.259  -1.747   0.000  1.00  0.00     0.000 A 
HETATM   11  C   UNL     1       0.233  -1.903   0.000  1.00  0.00     0.000 A 
HETATM   12  C   UNL     1       0.843  -3.274   0.000  1.00  0.00     0.000 A 
HETATM   13  C   UNL     1      -0.039  -4.487   0.000  1.00  0.00     0.000 A 
ENDBRANCH   7   8
ENDBRANCH   4   7
BRANCH   5  14
HETATM   14  C   UNL     1      -7.577  -6.642   0.000  1.00  0.00     0.068 C 
BRANCH  14  15
HETATM   15  C   UNL     1      -7.577  -8.142   0.000  1.00  0.00     0.008 A 
HETATM   16  C   UNL     1      -6.278  -8.892   0.000  1.00  0.00     0.000 A 
HETATM   17  C   UNL     1      -6.278 -10.392   0.000  1.00  0.00     0.000 A 
HETATM   18  C   UNL     1      -7.577 -11.142   0.000  1.00  0.00     0.000 A 
HETATM   19  C   UNL     1      -8.876 -10.392   0.000  1.00  0.00     0.000 A 
HETATM   20  C   UNL     1      -8.876  -8.892   0.000  1.00  0.00     0.000 A 
ENDBRANCH  14  15
ENDBRANCH   5  14
TORSDOF 4
