REMARK  4 active torsions:
REMARK  status: ('A' for Active; 'I' for Inactive)
REMARK    1  A    between atoms: C_5  and  N_17 
REMARK    2  A    between atoms: C_11  and  N_17 
REMARK    3  A    between atoms: C_14  and  N_18 
REMARK    4  A    between atoms: N_18  and  C_19 
ROOT
HETATM    1  C   UNL     1       1.425   6.566   0.000  1.00  0.00     0.037 A 
HETATM    2  C   UNL     1       0.675   7.865   0.000  1.00  0.00     0.047 A 
HETATM    3  C   UNL     1       1.425   9.164   0.000  1.00  0.00     0.047 A 
HETATM    4  C   UNL     1       2.925   9.164   0.000  1.00  0.00     0.037 A 
HETATM    5  C   UNL     1       3.675   7.865   0.000  1.00  0.00     0.047 A 
HETATM    6  C   UNL     1       2.925   6.566   0.000  1.00  0.00     0.047 A 
ENDROOT
BRANCH   1   7
HETATM    7  N   UNL     1       0.675   5.267   0.000  1.00  0.00    -0.263 NA
BRANCH   7   8
HETATM    8  C   UNL     1      -0.825   5.267   0.000  1.00  0.00     0.040 A 
HETATM    9  C   UNL     1      -1.575   6.566   0.000  1.00  0.00     0.063 A 
HETATM   10  C   UNL     1      -3.075   6.566   0.000  1.00  0.00     0.085 A 
HETATM   11  N   UNL     1      -3.825   5.267   0.000  1.00  0.00    -0.302 NA
HETATM   12  C   UNL     1      -4.484   7.079   0.000  1.00  0.00     0.024 C 
HETATM   13  C   UNL     1      -2.814   8.043   0.000  1.00  0.00     0.024 C 
HETATM   14  C   UNL     1      -3.075   3.968   0.000  1.00  0.00     0.085 A 
HETATM   15  C   UNL     1      -1.575   3.968   0.000  1.00  0.00     0.063 A 
HETATM   16  C   UNL     1      -4.484   3.455   0.000  1.00  0.00     0.024 C 
HETATM   17  C   UNL     1      -2.814   2.491   0.000  1.00  0.00     0.024 C 
ENDBRANCH   7   8
ENDBRANCH   1   7
BRANCH   4  18
HETATM   18  N   UNL     1       3.675  10.463   0.000  1.00  0.00    -0.263 NA
BRANCH  18  19
HETATM   19  C   UNL     1       2.925  11.762   0.000  1.00  0.00     0.036 A 
HETATM   20  C   UNL     1       1.425  11.762   0.000  1.00  0.00     0.041 A 
HETATM   21  C   UNL     1       0.675  13.062   0.000  1.00  0.00     0.006 A 
HETATM   22  C   UNL     1       1.425  14.361   0.000  1.00  0.00     0.001 A 
HETATM   23  C   UNL     1       2.925  14.361   0.000  1.00  0.00     0.006 A 
HETATM   24  C   UNL     1       3.675  13.062   0.000  1.00  0.00     0.041 A 
ENDBRANCH  18  19
ENDBRANCH   4  18
TORSDOF 4
