REMARK  5 active torsions:
REMARK  status: ('A' for Active; 'I' for Inactive)
REMARK    1  A    between atoms: C_2  and  C_9 
REMARK    2  A    between atoms: C_5  and  C_7 
REMARK    3  A    between atoms: C_9  and  C_10 
REMARK    4  A    between atoms: C_10  and  C_11 
REMARK    5  A    between atoms: C_10  and  C_13 
ROOT
HETATM    1  N   UNL     1      -7.245  -0.750   0.000  1.00  0.00    -0.279 NA
HETATM    2  C   UNL     1      -5.946  -1.500   0.000  1.00  0.00     0.032 A 
HETATM    3  C   UNL     1      -5.946  -3.000   0.000  1.00  0.00     0.041 A 
HETATM    4  C   UNL     1      -7.245  -3.750   0.000  1.00  0.00     0.008 A 
HETATM    5  C   UNL     1      -8.544  -3.000   0.000  1.00  0.00     0.025 A 
HETATM    6  C   UNL     1      -8.544  -1.500   0.000  1.00  0.00     0.125 A 
ENDROOT
BRANCH   2   7
HETATM    7  C   UNL     1      -4.647  -0.750   0.000  1.00  0.00     0.041 C 
BRANCH   7   8
HETATM    8  C   UNL     1      -3.348  -1.500   0.000  1.00  0.00     0.006 C 
BRANCH   8   9
HETATM    9  C   UNL     1      -2.049  -0.750   0.000  1.00  0.00     0.000 C 
HETATM   10  C   UNL     1      -0.750  -1.500   0.000  1.00  0.00     0.000 C 
ENDBRANCH   8   9
BRANCH   8  11
HETATM   11  C   UNL     1      -3.348  -3.000   0.000  1.00  0.00     0.000 C 
HETATM   12  C   UNL     1      -2.049  -3.750   0.000  1.00  0.00     0.000 C 
ENDBRANCH   8  11
ENDBRANCH   7   8
ENDBRANCH   2   7
BRANCH   5  13
HETATM   13  C   UNL     1      -9.843  -3.750   0.000  1.00  0.00     0.002 C 
HETATM   14  C   UNL     1     -11.142  -3.000   0.000  1.00  0.00     0.000 C 
ENDBRANCH   5  13
TORSDOF 5
