REMARK  2 active torsions:
REMARK  status: ('A' for Active; 'I' for Inactive)
REMARK    1  A    between atoms: C_12  and  N_13 
REMARK    2  A    between atoms: N_13  and  C_14 
ROOT
HETATM    1  C   UNL     1     -13.740  -3.750   0.000  1.00  0.00     0.034 A 
HETATM    2  C   UNL     1     -15.039  -3.000   0.000  1.00  0.00     0.006 A 
HETATM    3  C   UNL     1     -15.039  -1.500   0.000  1.00  0.00     0.007 A 
HETATM    4  C   UNL     1     -13.740  -0.750   0.000  1.00  0.00     0.046 A 
HETATM    5  C   UNL     1     -12.441  -1.500   0.000  1.00  0.00     0.063 A 
HETATM    6  C   UNL     1     -12.441  -3.000   0.000  1.00  0.00     0.021 A 
HETATM    7  S   UNL     1     -11.142  -3.750   0.000  1.00  0.00    -0.090 SA
HETATM    8  C   UNL     1      -9.843  -3.000   0.000  1.00  0.00     0.059 A 
HETATM    9  C   UNL     1      -9.843  -1.500   0.000  1.00  0.00     0.215 A 
HETATM   10  N   UNL     1     -11.142  -0.750   0.000  1.00  0.00    -0.224 NA
HETATM   11  C   UNL     1      -8.544  -3.750   0.000  1.00  0.00     0.111 A 
HETATM   12  C   UNL     1      -7.245  -3.000   0.000  1.00  0.00     0.194 A 
HETATM   13  O   UNL     1      -7.245  -1.500   0.000  1.00  0.00    -0.173 OA
HETATM   14  O   UNL     1      -8.544  -0.750   0.000  1.00  0.00    -0.169 OA
ENDROOT
BRANCH  12  15
HETATM   15  N   UNL     1      -5.946  -3.750   0.000  1.00  0.00    -0.228 NA
BRANCH  15  16
HETATM   16  C   UNL     1      -4.647  -3.000   0.000  1.00  0.00     0.058 A 
HETATM   17  C   UNL     1      -4.647  -1.500   0.000  1.00  0.00     0.046 A 
HETATM   18  C   UNL     1      -3.348  -0.750   0.000  1.00  0.00     0.012 A 
HETATM   19  C   UNL     1      -2.049  -1.500   0.000  1.00  0.00     0.038 A 
HETATM   20  C   UNL     1      -2.049  -3.000   0.000  1.00  0.00     0.033 A 
HETATM   21  C   UNL     1      -3.348  -3.750   0.000  1.00  0.00    -0.002 A 
HETATM   22 CL   UNL     1      -0.750  -3.750   0.000  1.00  0.00    -0.087 Cl
HETATM   23  C   UNL     1      -3.348  -5.250   0.000  1.00  0.00     0.033 C 
ENDBRANCH  15  16
ENDBRANCH  12  15
TORSDOF 2
