REMARK  0 active torsions:
REMARK  status: ('A' for Active; 'I' for Inactive)
ROOT
HETATM    1  C   UNL     1       7.316   5.110   0.000  1.00  0.00     0.123 A 
HETATM    2  C   UNL     1       5.946   4.500   0.000  1.00  0.00     0.007 A 
HETATM    3  C   UNL     1       6.103   3.008   0.000  1.00  0.00    -0.006 A 
HETATM    4  C   UNL     1       7.570   2.696   0.000  1.00  0.00    -0.024 A 
HETATM    5  C   UNL     1       8.320   3.995   0.000  1.00  0.00    -0.001 A 
HETATM    6  O   UNL     1       7.628   6.577   0.000  1.00  0.00    -0.191 OA
HETATM    7  C   UNL     1       9.820   3.995   0.000  1.00  0.00     0.028 A 
HETATM    8  C   UNL     1      10.570   2.696   0.000  1.00  0.00     0.005 A 
HETATM    9  C   UNL     1       9.820   1.397   0.000  1.00  0.00     0.005 A 
HETATM   10  C   UNL     1       8.320   1.397   0.000  1.00  0.00     0.026 A 
HETATM   11  C   UNL     1       0.750   4.500   0.000  1.00  0.00     0.005 A 
HETATM   12  C   UNL     1       2.049   5.250   0.000  1.00  0.00     0.022 A 
HETATM   13  C   UNL     1       3.348   4.500   0.000  1.00  0.00    -0.044 A 
HETATM   14  C   UNL     1       3.348   3.000   0.000  1.00  0.00    -0.034 A 
HETATM   15  C   UNL     1       2.049   2.250   0.000  1.00  0.00     0.025 A 
HETATM   16  C   UNL     1       0.750   3.000   0.000  1.00  0.00     0.005 A 
HETATM   17  C   UNL     1       4.647   5.250   0.000  1.00  0.00     0.050 A 
HETATM   18  O   UNL     1       4.647   2.250   0.000  1.00  0.00     0.000 OA
HETATM   19  C   UNL     1       4.647   0.750   0.000  1.00  0.00     0.000 C 
ENDROOT
TORSDOF 0
