REMARK  3 active torsions:
REMARK  status: ('A' for Active; 'I' for Inactive)
REMARK    1  A    between atoms: C_2  and  C_18 
REMARK    2  A    between atoms: C_14  and  C_18 
REMARK    3  A    between atoms: C_17  and  N_19 
ROOT
HETATM    1  C   UNL     1       9.843   5.250   0.000  1.00  0.00     0.118 A 
HETATM    2  C   UNL     1       8.544   4.500   0.000  1.00  0.00    -0.019 A 
HETATM    3  C   UNL     1       8.544   3.000   0.000  1.00  0.00     0.028 A 
HETATM    4  C   UNL     1       9.843   2.250   0.000  1.00  0.00     0.026 A 
HETATM    5  C   UNL     1      11.142   3.000   0.000  1.00  0.00    -0.046 A 
HETATM    6  C   UNL     1      11.142   4.500   0.000  1.00  0.00    -0.005 A 
HETATM    7  O   UNL     1       9.843   6.750   0.000  1.00  0.00    -0.191 OA
HETATM    8  C   UNL     1      12.441   5.250   0.000  1.00  0.00     0.028 A 
HETATM    9  C   UNL     1      13.740   4.500   0.000  1.00  0.00     0.005 A 
HETATM   10  C   UNL     1      13.740   3.000   0.000  1.00  0.00     0.005 A 
HETATM   11  C   UNL     1      12.441   2.250   0.000  1.00  0.00     0.022 A 
ENDROOT
BRANCH   2  12
HETATM   12  C   UNL     1       7.245   5.250   0.000  1.00  0.00     0.024 C 
BRANCH  12  13
HETATM   13  C   UNL     1       5.946   4.500   0.000  1.00  0.00     0.005 A 
HETATM   14  C   UNL     1       4.647   5.250   0.000  1.00  0.00     0.006 A 
HETATM   15  C   UNL     1       3.348   4.500   0.000  1.00  0.00     0.046 A 
HETATM   16  C   UNL     1       3.348   3.000   0.000  1.00  0.00     0.082 A 
HETATM   17  C   UNL     1       4.647   2.250   0.000  1.00  0.00     0.046 A 
HETATM   18  C   UNL     1       5.946   3.000   0.000  1.00  0.00     0.006 A 
BRANCH  16  19
HETATM   19  N   UNL     1       2.049   2.250   0.000  1.00  0.00    -0.122 N 
HETATM   20  O   UNL     1       2.049   0.750   0.000  1.00  0.00    -0.532 OA
HETATM   21  O   UNL     1       0.750   3.000   0.000  1.00  0.00    -0.532 OA
ENDBRANCH  16  19
ENDBRANCH  12  13
ENDBRANCH   2  12
TORSDOF 3
