REMARK  4 active torsions:
REMARK  status: ('A' for Active; 'I' for Inactive)
REMARK    1  A    between atoms: C_8  and  C_11 
REMARK    2  A    between atoms: C_12  and  N_30 
REMARK    3  A    between atoms: C_18  and  N_27 
REMARK    4  A    between atoms: C_21  and  C_23 
REMARK       I    between atoms: N_27  and  C_28 
REMARK       I    between atoms: C_28  and  N_30 
ROOT
HETATM    1  N   UNL     1       2.223 -12.649   0.000  1.00  0.00    -0.212 NA
HETATM    2  C   UNL     1       2.223 -11.149   0.000  1.00  0.00     0.299 C 
HETATM    3  O   UNL     1       3.522 -10.399   0.000  1.00  0.00    -0.147 OA
HETATM    4  N   UNL     1       0.924 -10.399   0.000  1.00  0.00    -0.212 NA
ENDROOT
BRANCH   1   5
HETATM    5  C   UNL     1       0.924 -13.399   0.000  1.00  0.00     0.041 A 
HETATM    6  C   UNL     1      -0.375 -12.649   0.000  1.00  0.00     0.046 A 
HETATM    7  C   UNL     1      -1.674 -13.399   0.000  1.00  0.00     0.031 A 
HETATM    8  C   UNL     1      -1.674 -14.899   0.000  1.00  0.00    -0.010 A 
HETATM    9  C   UNL     1      -0.375 -15.649   0.000  1.00  0.00     0.031 A 
HETATM   10  C   UNL     1       0.924 -14.899   0.000  1.00  0.00     0.046 A 
BRANCH   8  11
HETATM   11  C   UNL     1      -2.973 -15.649   0.000  1.00  0.00     0.124 A 
HETATM   12  N   UNL     1      -4.272 -14.899   0.000  1.00  0.00    -0.359 N 
HETATM   13  H   UNL     1      -4.272 -13.399   0.000  1.00  0.00     0.162 HD
HETATM   14  C   UNL     1      -5.571 -15.649   0.000  1.00  0.00     0.101 A 
HETATM   15  C   UNL     1      -5.571 -17.149   0.000  1.00  0.00     0.050 A 
HETATM   16  C   UNL     1      -4.272 -17.899   0.000  1.00  0.00     0.129 A 
HETATM   17  N   UNL     1      -2.973 -17.149   0.000  1.00  0.00    -0.255 NA
ENDBRANCH   8  11
ENDBRANCH   1   5
BRANCH   4  18
HETATM   18  C   UNL     1       0.924  -8.899   0.000  1.00  0.00     0.041 A 
HETATM   19  C   UNL     1      -0.375  -8.149   0.000  1.00  0.00     0.046 A 
HETATM   20  C   UNL     1      -0.375  -6.649   0.000  1.00  0.00     0.031 A 
HETATM   21  C   UNL     1       0.924  -5.899   0.000  1.00  0.00    -0.010 A 
HETATM   22  C   UNL     1       2.223  -6.649   0.000  1.00  0.00     0.031 A 
HETATM   23  C   UNL     1       2.223  -8.149   0.000  1.00  0.00     0.046 A 
BRANCH  21  24
HETATM   24  C   UNL     1       0.924  -4.399   0.000  1.00  0.00     0.124 A 
HETATM   25  N   UNL     1       2.223  -3.650   0.000  1.00  0.00    -0.255 NA
HETATM   26  C   UNL     1       2.223  -2.150   0.000  1.00  0.00     0.129 A 
HETATM   27  C   UNL     1       0.924  -1.399   0.000  1.00  0.00     0.050 A 
HETATM   28  C   UNL     1      -0.375  -2.150   0.000  1.00  0.00     0.101 A 
HETATM   29  N   UNL     1      -0.375  -3.650   0.000  1.00  0.00    -0.359 N 
HETATM   30  H   UNL     1      -1.674  -4.399   0.000  1.00  0.00     0.162 HD
ENDBRANCH  21  24
ENDBRANCH   4  18
TORSDOF 4
