REMARK  1 active torsions:
REMARK  status: ('A' for Active; 'I' for Inactive)
REMARK    1  A    between atoms: O_11  and  C_12 
ROOT
HETATM    1  C   UNL     1     -11.142  -3.000   0.000  1.00  0.00     0.034 A 
HETATM    2  C   UNL     1     -11.142  -4.500   0.000  1.00  0.00    -0.003 A 
HETATM    3  C   UNL     1      -9.843  -5.250   0.000  1.00  0.00     0.080 A 
HETATM    4  C   UNL     1      -8.544  -4.500   0.000  1.00  0.00     0.077 A 
HETATM    5  C   UNL     1      -8.544  -3.000   0.000  1.00  0.00    -0.020 A 
HETATM    6  C   UNL     1      -9.843  -2.250   0.000  1.00  0.00     0.029 A 
HETATM    7  C   UNL     1      -7.245  -2.250   0.000  1.00  0.00     0.056 A 
HETATM    8  C   UNL     1      -5.946  -3.000   0.000  1.00  0.00     0.056 A 
HETATM    9  C   UNL     1      -4.647  -2.250   0.000  1.00  0.00     0.156 A 
HETATM   10  O   UNL     1      -4.647  -0.750   0.000  1.00  0.00    -0.188 OA
HETATM   11  O   UNL     1      -3.348  -3.000   0.000  1.00  0.00     0.000 OA
HETATM   12  C   UNL     1      -5.946  -4.500   0.000  1.00  0.00     0.201 A 
HETATM   13  O   UNL     1      -7.245  -5.250   0.000  1.00  0.00    -0.290 OA
HETATM   14  O   UNL     1      -4.647  -5.250   0.000  1.00  0.00    -0.288 OA
HETATM   15  C   UNL     1      -3.348  -4.500   0.000  1.00  0.00     0.099 A 
HETATM   16  C   UNL     1      -2.049  -5.250   0.000  1.00  0.00     0.060 C 
HETATM   17 BR   UNL     1     -12.441  -5.250   0.000  1.00  0.00    -0.058 Br
ENDROOT
BRANCH  11  18
HETATM   18  C   UNL     1      -2.049  -2.250   0.000  1.00  0.00     0.000 C 
HETATM   19  C   UNL     1      -0.750  -3.000   0.000  1.00  0.00     0.000 C 
ENDBRANCH  11  18
TORSDOF 1
