REMARK  5 active torsions:
REMARK  status: ('A' for Active; 'I' for Inactive)
REMARK    1  A    between atoms: C_5  and  C_7 
REMARK    2  A    between atoms: C_7  and  C_8 
REMARK    3  A    between atoms: C_8  and  C_9 
REMARK    4  A    between atoms: C_9  and  O_13 
REMARK    5  A    between atoms: O_13  and  C_14 
ROOT
HETATM    1  C   UNL     1      -5.946  -3.000   0.000  1.00  0.00     0.081 C 
HETATM    2  C   UNL     1      -5.946  -4.500   0.000  1.00  0.00     0.021 C 
HETATM    3  N   UNL     1      -5.946  -6.000   0.000  1.00  0.00    -0.096 N 
ENDROOT
BRANCH   1   4
HETATM    4  C   UNL     1      -7.245  -2.250   0.000  1.00  0.00     0.040 C 
BRANCH   4   5
HETATM    5  C   UNL     1      -8.544  -3.000   0.000  1.00  0.00     0.005 A 
HETATM    6  C   UNL     1      -8.544  -4.500   0.000  1.00  0.00     0.000 A 
HETATM    7  C   UNL     1      -9.843  -5.250   0.000  1.00  0.00     0.000 A 
HETATM    8  C   UNL     1     -11.142  -4.500   0.000  1.00  0.00     0.000 A 
HETATM    9  C   UNL     1     -11.142  -3.000   0.000  1.00  0.00     0.000 A 
HETATM   10  C   UNL     1      -9.843  -2.250   0.000  1.00  0.00     0.000 A 
HETATM   11  C   UNL     1     -12.441  -2.250   0.000  1.00  0.00     0.000 C 
ENDBRANCH   4   5
ENDBRANCH   1   4
BRANCH   1  12
HETATM   12  C   UNL     1      -4.647  -2.250   0.000  1.00  0.00     0.233 C 
HETATM   13  O   UNL     1      -4.647  -0.750   0.000  1.00  0.00    -0.163 OA
BRANCH  12  14
HETATM   14  O   UNL     1      -3.348  -3.000   0.000  1.00  0.00    -0.309 OA
BRANCH  14  15
HETATM   15  C   UNL     1      -2.049  -2.250   0.000  1.00  0.00     0.151 C 
HETATM   16  C   UNL     1      -0.750  -3.000   0.000  1.00  0.00     0.035 C 
ENDBRANCH  14  15
ENDBRANCH  12  14
ENDBRANCH   1  12
TORSDOF 5
