REMARK  4 active torsions:
REMARK  status: ('A' for Active; 'I' for Inactive)
REMARK    1  A    between atoms: C_6  and  C_7 
REMARK    2  A    between atoms: C_7  and  C_8 
REMARK    3  A    between atoms: P_10  and  O_15 
REMARK    4  A    between atoms: O_15  and  C_16 
ROOT
HETATM    1  C   UNL     1      -3.522  -5.899   0.000  1.00  0.00     0.073 A 
HETATM    2  P   UNL     1      -2.223  -5.149   0.000  1.00  0.00     0.367 P 
HETATM    3  C   UNL     1      -3.522  -7.399   0.000  1.00  0.00     0.092 A 
HETATM    4  N   UNL     1      -3.522  -8.899   0.000  1.00  0.00    -0.099 NA
HETATM    5  O   UNL     1      -2.973  -3.850   0.000  1.00  0.00    -0.253 OA
HETATM    6  O   UNL     1      -1.473  -6.449   0.000  1.00  0.00    -0.270 OA
HETATM    7  C   UNL     1      -2.223  -7.748   0.000  1.00  0.00     0.094 A 
HETATM    8  C   UNL     1      -1.473  -9.047   0.000  1.00  0.00     0.059 C 
ENDROOT
BRANCH   1   9
HETATM    9  C   UNL     1      -4.821  -5.149   0.000  1.00  0.00     0.035 C 
BRANCH   9  10
HETATM   10  C   UNL     1      -6.120  -5.899   0.000  1.00  0.00     0.005 A 
HETATM   11  C   UNL     1      -7.419  -5.149   0.000  1.00  0.00     0.005 A 
HETATM   12  C   UNL     1      -8.718  -5.899   0.000  1.00  0.00     0.029 A 
HETATM   13  C   UNL     1      -8.718  -7.399   0.000  1.00  0.00    -0.010 A 
HETATM   14  C   UNL     1      -7.419  -8.149   0.000  1.00  0.00     0.029 A 
HETATM   15 BR   UNL     1     -10.017  -8.149   0.000  1.00  0.00    -0.059 Br
HETATM   16  C   UNL     1      -6.120  -7.399   0.000  1.00  0.00     0.005 A 
ENDBRANCH   9  10
ENDBRANCH   1   9
BRANCH   2  17
HETATM   17  O   UNL     1      -0.924  -4.399   0.000  1.00  0.00    -0.291 OA
BRANCH  17  18
HETATM   18  C   UNL     1      -0.924  -2.900   0.000  1.00  0.00     0.152 C 
HETATM   19  C   UNL     1       0.375  -2.150   0.000  1.00  0.00     0.035 C 
ENDBRANCH  17  18
ENDBRANCH   2  17
TORSDOF 4
