REMARK  5 active torsions:
REMARK  status: ('A' for Active; 'I' for Inactive)
REMARK    1  A    between atoms: C_3  and  C_7 
REMARK    2  A    between atoms: C_6  and  N_19 
REMARK    3  A    between atoms: C_7  and  C_8 
REMARK    4  A    between atoms: C_8  and  C_9 
REMARK    5  A    between atoms: C_9  and  C_13 
ROOT
HETATM    1  C   UNL     1      -5.946  -3.000   0.000  1.00  0.00     0.057 C 
HETATM    2  C   UNL     1      -5.946  -4.500   0.000  1.00  0.00     0.019 C 
HETATM    3  N   UNL     1      -5.946  -6.000   0.000  1.00  0.00    -0.096 N 
ENDROOT
BRANCH   1   4
HETATM    4  C   UNL     1      -7.245  -2.250   0.000  1.00  0.00     0.038 C 
BRANCH   4   5
HETATM    5  C   UNL     1      -8.544  -3.000   0.000  1.00  0.00     0.006 A 
HETATM    6  C   UNL     1      -9.843  -2.250   0.000  1.00  0.00     0.006 A 
HETATM    7  C   UNL     1     -11.142  -3.000   0.000  1.00  0.00     0.039 A 
HETATM    8  C   UNL     1     -11.142  -4.500   0.000  1.00  0.00     0.010 A 
HETATM    9  C   UNL     1      -9.843  -5.250   0.000  1.00  0.00     0.039 A 
HETATM   10  C   UNL     1      -8.544  -4.500   0.000  1.00  0.00     0.006 A 
BRANCH   8  11
HETATM   11  N   UNL     1     -12.441  -5.250   0.000  1.00  0.00    -0.351 N 
HETATM   12  C   UNL     1     -13.740  -4.500   0.000  1.00  0.00     0.125 C 
HETATM   13  C   UNL     1     -12.441  -6.750   0.000  1.00  0.00     0.125 C 
ENDBRANCH   8  11
ENDBRANCH   4   5
ENDBRANCH   1   4
BRANCH   1  14
HETATM   14  C   UNL     1      -4.647  -2.250   0.000  1.00  0.00     0.128 C 
HETATM   15  O   UNL     1      -4.647  -0.750   0.000  1.00  0.00    -0.191 OA
BRANCH  14  16
HETATM   16  C   UNL     1      -3.348  -3.000   0.000  1.00  0.00    -0.018 A 
HETATM   17  C   UNL     1      -2.049  -2.250   0.000  1.00  0.00     0.024 A 
HETATM   18  C   UNL     1      -0.750  -3.000   0.000  1.00  0.00     0.004 A 
HETATM   19  C   UNL     1      -0.750  -4.500   0.000  1.00  0.00     0.001 A 
HETATM   20  C   UNL     1      -2.049  -5.250   0.000  1.00  0.00     0.004 A 
HETATM   21  C   UNL     1      -3.348  -4.500   0.000  1.00  0.00     0.024 A 
ENDBRANCH  14  16
ENDBRANCH   1  14
TORSDOF 5
