REMARK  4 active torsions:
REMARK  status: ('A' for Active; 'I' for Inactive)
REMARK    1  A    between atoms: C_5  and  C_11 
REMARK    2  A    between atoms: C_7  and  N_17 
REMARK    3  A    between atoms: N_17  and  C_18 
REMARK    4  A    between atoms: C_18  and  C_20 
ROOT
HETATM    1  C   UNL     1       0.750  -3.750   0.000  1.00  0.00     0.005 A 
HETATM    2  C   UNL     1       2.049  -3.000   0.000  1.00  0.00     0.022 A 
HETATM    3  C   UNL     1       3.348  -3.750   0.000  1.00  0.00    -0.039 A 
HETATM    4  C   UNL     1       4.647  -3.000   0.000  1.00  0.00     0.069 A 
HETATM    5  C   UNL     1       5.946  -3.750   0.000  1.00  0.00     0.078 A 
HETATM    6  N   UNL     1       5.946  -5.250   0.000  1.00  0.00    -0.230 NA
HETATM    7  C   UNL     1       4.647  -6.000   0.000  1.00  0.00     0.159 A 
HETATM    8  C   UNL     1       3.348  -5.250   0.000  1.00  0.00     0.006 A 
HETATM    9  C   UNL     1       2.049  -6.000   0.000  1.00  0.00     0.029 A 
HETATM   10  C   UNL     1       0.750  -5.250   0.000  1.00  0.00     0.005 A 
ENDROOT
BRANCH   7  11
HETATM   11  N   UNL     1       4.647  -7.500   0.000  1.00  0.00    -0.212 NA
BRANCH  11  12
HETATM   12  C   UNL     1       5.946  -8.250   0.000  1.00  0.00     0.165 C 
HETATM   13  N   UNL     1       7.245  -7.500   0.000  1.00  0.00    -0.078 NA
BRANCH  12  14
HETATM   14  C   UNL     1       5.946  -9.750   0.000  1.00  0.00     0.085 A 
HETATM   15  C   UNL     1       4.647 -10.500   0.000  1.00  0.00     0.048 A 
HETATM   16  C   UNL     1       4.647 -12.000   0.000  1.00  0.00     0.008 A 
HETATM   17  C   UNL     1       5.946 -12.750   0.000  1.00  0.00     0.027 A 
HETATM   18  C   UNL     1       7.245 -12.000   0.000  1.00  0.00     0.125 A 
HETATM   19  N   UNL     1       7.245 -10.500   0.000  1.00  0.00    -0.272 NA
ENDBRANCH  12  14
ENDBRANCH  11  12
ENDBRANCH   7  11
BRANCH   5  20
HETATM   20  C   UNL     1       7.245  -3.000   0.000  1.00  0.00     0.068 A 
HETATM   21  C   UNL     1       7.245  -1.500   0.000  1.00  0.00     0.047 A 
HETATM   22  C   UNL     1       8.544  -0.750   0.000  1.00  0.00     0.008 A 
HETATM   23  C   UNL     1       9.843  -1.500   0.000  1.00  0.00     0.027 A 
HETATM   24  C   UNL     1       9.843  -3.000   0.000  1.00  0.00     0.125 A 
HETATM   25  N   UNL     1       8.544  -3.750   0.000  1.00  0.00    -0.274 NA
ENDBRANCH   5  20
TORSDOF 4
