REMARK  0 active torsions:
REMARK  status: ('A' for Active; 'I' for Inactive)
ROOT
HETATM    1  C   UNL     1       5.311  -0.443   0.000  1.00  0.00    -0.009 A 
HETATM    2  C   UNL     1       6.811  -0.443   0.000  1.00  0.00    -0.009 A 
HETATM    3  C   UNL     1       7.747   0.730   0.000  1.00  0.00    -0.044 A 
HETATM    4  C   UNL     1       7.413   2.192   0.000  1.00  0.00     0.019 A 
HETATM    5  C   UNL     1       6.061   2.843   0.000  1.00  0.00     0.011 A 
HETATM    6  C   UNL     1       4.710   2.192   0.000  1.00  0.00     0.019 A 
HETATM    7  C   UNL     1       4.376   0.730   0.000  1.00  0.00    -0.044 A 
HETATM    8  C   UNL     1       3.610   3.212   0.000  1.00  0.00     0.004 A 
HETATM    9  C   UNL     1       2.177   2.770   0.000  1.00  0.00     0.001 A 
HETATM   10  C   UNL     1       1.843   1.308   0.000  1.00  0.00     0.004 A 
HETATM   11  C   UNL     1       2.943   0.288   0.000  1.00  0.00     0.022 A 
HETATM   12  C   UNL     1       8.512   3.212   0.000  1.00  0.00     0.008 A 
HETATM   13  C   UNL     1       9.946   2.770   0.000  1.00  0.00     0.001 A 
HETATM   14  C   UNL     1      10.280   1.308   0.000  1.00  0.00     0.004 A 
HETATM   15  C   UNL     1       9.180   0.288   0.000  1.00  0.00     0.022 A 
HETATM   16  O   UNL     1       4.848   3.725   0.000  1.00  0.00     0.000 OA
HETATM   17  C   UNL     1       5.311   5.151   0.000  1.00  0.00     0.148 A 
HETATM   18  O   UNL     1       4.430   6.365   0.000  1.00  0.00    -0.189 OA
HETATM   19  C   UNL     1       6.811   5.151   0.000  1.00  0.00    -0.017 A 
HETATM   20  C   UNL     1       7.693   6.365   0.000  1.00  0.00     0.029 C 
HETATM   21  C   UNL     1       7.275   3.725   0.000  1.00  0.00     0.021 A 
ENDROOT
TORSDOF 0
