REMARK  3 active torsions:
REMARK  status: ('A' for Active; 'I' for Inactive)
REMARK    1  A    between atoms: C_4  and  C_8 
REMARK    2  A    between atoms: C_8  and  C_9 
REMARK    3  A    between atoms: C_9  and  C_12 
ROOT
HETATM    1  C   UNL     1      -3.348  -3.000   0.000  1.00  0.00     0.071 C 
HETATM    2  C   UNL     1      -3.348  -4.500   0.000  1.00  0.00     0.020 C 
HETATM    3  N   UNL     1      -3.348  -6.000   0.000  1.00  0.00    -0.096 N 
ENDROOT
BRANCH   1   4
HETATM    4  C   UNL     1      -4.647  -2.250   0.000  1.00  0.00     0.040 C 
BRANCH   4   5
HETATM    5  C   UNL     1      -5.946  -3.000   0.000  1.00  0.00     0.018 A 
HETATM    6  C   UNL     1      -7.245  -2.250   0.000  1.00  0.00     0.057 A 
HETATM    7  C   UNL     1      -8.544  -3.000   0.000  1.00  0.00     0.135 A 
HETATM    8  C   UNL     1      -8.544  -4.500   0.000  1.00  0.00     0.173 A 
HETATM    9  O   UNL     1      -9.843  -2.250   0.000  1.00  0.00    -0.193 OA
HETATM   10  C   UNL     1      -7.245  -5.250   0.000  1.00  0.00     0.135 A 
HETATM   11  O   UNL     1      -9.843  -5.250   0.000  1.00  0.00    -0.186 OA
HETATM   12  C   UNL     1      -5.946  -4.500   0.000  1.00  0.00     0.057 A 
HETATM   13  O   UNL     1      -7.245  -6.750   0.000  1.00  0.00    -0.193 OA
ENDBRANCH   4   5
ENDBRANCH   1   4
BRANCH   1  14
HETATM   14  C   UNL     1      -2.049  -2.250   0.000  1.00  0.00     0.205 C 
HETATM   15  O   UNL     1      -2.049  -0.750   0.000  1.00  0.00    -0.174 OA
HETATM   16  N   UNL     1      -0.750  -3.000   0.000  1.00  0.00    -0.070 NA
ENDBRANCH   1  14
TORSDOF 3
