REMARK  4 active torsions:
REMARK  status: ('A' for Active; 'I' for Inactive)
REMARK    1  A    between atoms: C_3  and  O_14 
REMARK    2  A    between atoms: C_4  and  C_7 
REMARK    3  A    between atoms: C_7  and  C_8 
REMARK    4  A    between atoms: C_8  and  C_9 
ROOT
HETATM    1  C   UNL     1       5.946   3.750   0.000  1.00  0.00     0.168 C 
HETATM    2  C   UNL     1       5.946   2.250   0.000  1.00  0.00     0.005 C 
HETATM    3  N   UNL     1       5.946   0.750   0.000  1.00  0.00    -0.100 N 
ENDROOT
BRANCH   1   4
HETATM    4  C   UNL     1       4.647   4.500   0.000  1.00  0.00     0.049 C 
BRANCH   4   5
HETATM    5  C   UNL     1       3.348   3.750   0.000  1.00  0.00    -0.025 A 
HETATM    6  C   UNL     1       2.049   4.500   0.000  1.00  0.00     0.064 A 
HETATM    7  C   UNL     1       0.750   3.750   0.000  1.00  0.00     0.050 A 
HETATM    8  C   UNL     1       0.750   2.250   0.000  1.00  0.00     0.007 A 
HETATM    9  C   UNL     1       2.049   1.500   0.000  1.00  0.00     0.005 A 
HETATM   10  C   UNL     1       3.348   2.250   0.000  1.00  0.00     0.024 A 
BRANCH   6  11
HETATM   11  O   UNL     1       2.049   6.000   0.000  1.00  0.00    -0.333 OA
HETATM   12  C   UNL     1       3.348   6.750   0.000  1.00  0.00     0.181 C 
ENDBRANCH   6  11
ENDBRANCH   4   5
ENDBRANCH   1   4
BRANCH   1  13
HETATM   13  C   UNL     1       7.245   4.500   0.000  1.00  0.00     0.199 C 
HETATM   14  O   UNL     1       7.245   6.000   0.000  1.00  0.00    -0.647 OA
HETATM   15  O   UNL     1       8.544   3.750   0.000  1.00  0.00    -0.647 OA
ENDBRANCH   1  13
TORSDOF 4
