REMARK  4 active torsions:
REMARK  status: ('A' for Active; 'I' for Inactive)
REMARK    1  A    between atoms: N_15  and  C_23 
REMARK    2  A    between atoms: C_23  and  C_24 
REMARK    3  A    between atoms: C_24  and  C_25 
REMARK    4  A    between atoms: C_25  and  N_26 
ROOT
HETATM    1 CL   UNL     2       1.156   0.633   0.000  1.00  0.00     0.000 Cl
ENDROOT
TORSDOF 4
