REMARK  5 active torsions:
REMARK  status: ('A' for Active; 'I' for Inactive)
REMARK    1  A    between atoms: C_7  and  C_12 
REMARK    2  A    between atoms: C_12  and  C_13 
REMARK    3  A    between atoms: C_13  and  C_14 
REMARK    4  A    between atoms: C_14  and  C_15 
REMARK    5  A    between atoms: C_15  and  C_16 
ROOT
HETATM    1  O   UNL     1      -2.742  -1.647   0.000  1.00  0.00    -0.151 OA
HETATM    2  H   UNL     1      -0.679  -4.175   0.000  1.00  0.00     0.169 HD
HETATM    3  N   UNL     1      -0.296  -2.725   0.000  1.00  0.00    -0.320 N 
HETATM    4  H   UNL     1      -0.976   1.097   0.000  1.00  0.00     0.169 HD
HETATM    5  N   UNL     1      -0.433  -0.301   0.000  1.00  0.00    -0.317 N 
HETATM    6  S   UNL     1       3.365  -1.303   0.000  1.00  0.00    -0.110 SA
HETATM    7  C   UNL     1       2.416  -0.141   0.000  1.00  0.00     0.020 A 
HETATM    8  C   UNL     1       1.018  -0.684   0.000  1.00  0.00     0.073 A 
HETATM    9  C   UNL     1       1.102  -2.182   0.000  1.00  0.00     0.064 A 
HETATM   10  C   UNL     1       2.553  -2.564   0.000  1.00  0.00     0.107 A 
HETATM   11  C   UNL     1      -1.245  -1.563   0.000  1.00  0.00     0.256 A 
ENDROOT
BRANCH   7  12
HETATM   12  C   UNL     1       2.799   1.310   0.000  1.00  0.00     0.034 C 
BRANCH  12  13
HETATM   13  C   UNL     1       1.734   2.366   0.000  1.00  0.00     0.006 C 
BRANCH  13  14
HETATM   14  C   UNL     1       0.286   1.972   0.000  1.00  0.00     0.012 C 
BRANCH  14  15
HETATM   15  C   UNL     1      -0.778   3.029   0.000  1.00  0.00     0.098 C 
BRANCH  15  16
HETATM   16  C   UNL     1      -2.226   2.635   0.000  1.00  0.00     0.185 C 
HETATM   17  O   UNL     1      -2.608   1.184   0.000  1.00  0.00    -0.647 OA
HETATM   18  O   UNL     1      -3.291   3.691   0.000  1.00  0.00    -0.647 OA
ENDBRANCH  15  16
ENDBRANCH  14  15
ENDBRANCH  13  14
ENDBRANCH  12  13
ENDBRANCH   7  12
TORSDOF 5
