REMARK  0 active torsions:
REMARK  status: ('A' for Active; 'I' for Inactive)
ROOT
HETATM    1  C   UNL     1      -1.108  -6.420   0.000  1.00  0.00     0.087 A 
HETATM    2  C   UNL     1       0.191  -7.170   0.000  1.00  0.00     0.114 A 
HETATM    3  O   UNL     1       0.191  -8.670   0.000  1.00  0.00    -0.195 OA
HETATM    4  C   UNL     1       1.490  -6.420   0.000  1.00  0.00     0.060 A 
HETATM    5  C   UNL     1       1.490  -4.920   0.000  1.00  0.00     0.251 A 
HETATM    6  N   UNL     1       0.191  -4.170   0.000  1.00  0.00     0.002 N 
HETATM    7  C   UNL     1      -1.108  -4.920   0.000  1.00  0.00     0.226 A 
HETATM    8  C   UNL     1      -1.108  -3.420   0.000  1.00  0.00     0.248 A 
HETATM    9  C   UNL     1       0.191  -2.670   0.000  1.00  0.00     0.250 A 
HETATM   10  I   UNL     2       2.789  -7.170   0.000  1.00  0.00    -0.044 I 
ENDROOT
TORSDOF 0
