REMARK  3 active torsions:
REMARK  status: ('A' for Active; 'I' for Inactive)
REMARK    1  A    between atoms: C_4  and  N_11 
REMARK       I    between atoms: N_11  and  C_29 
REMARK    2  A    between atoms: C_20  and  C_25 
REMARK    3  A    between atoms: C_29  and  C_31 
ROOT
HETATM    1 CL   UNL     2     -13.026  -2.300   0.000  1.00  0.00     0.000 Cl
ENDROOT
TORSDOF 3
