REMARK  3 active torsions:
REMARK  status: ('A' for Active; 'I' for Inactive)
REMARK    1  A    between atoms: C_9  and  C_11 
REMARK    2  A    between atoms: C_11  and  C_12 
REMARK    3  A    between atoms: C_12  and  C_14 
ROOT
HETATM    1  C   UNL     2     -11.540  -3.417   0.000  1.00  0.00     0.186 C 
HETATM    2  O   UNL     2     -12.839  -4.167   0.000  1.00  0.00    -0.647 OA
HETATM    3  O   UNL     2     -11.540  -1.917   0.000  1.00  0.00    -0.647 OA
HETATM    4  C   UNL     2     -10.241  -4.167   0.000  1.00  0.00     0.109 C 
ENDROOT
TORSDOF 3
