REMARK  1 active torsions:
REMARK  status: ('A' for Active; 'I' for Inactive)
REMARK    1  A    between atoms: C_2  and  O_21 
ROOT
HETATM    1  C   UNL     1      -8.257   3.059   0.000  1.00  0.00     0.057 A 
HETATM    2  C   UNL     1      -9.749   3.216   0.000  1.00  0.00     0.120 A 
HETATM    3  C   UNL     1      -7.647   1.689   0.000  1.00  0.00    -0.011 A 
HETATM    4  C   UNL     1      -8.529   0.475   0.000  1.00  0.00     0.033 A 
HETATM    5  C   UNL     1     -10.021   0.632   0.000  1.00  0.00     0.046 A 
HETATM    6  C   UNL     1     -10.631   2.003   0.000  1.00  0.00     0.036 A 
HETATM    7  C   UNL     1      -6.221   1.226   0.000  1.00  0.00    -0.009 A 
HETATM    8  C   UNL     1      -6.221  -0.275   0.000  1.00  0.00     0.057 A 
HETATM    9  N   UNL     1      -7.647  -0.738   0.000  1.00  0.00    -0.330 N 
HETATM   10  C   UNL     1      -8.111  -2.165   0.000  1.00  0.00     0.130 C 
HETATM   11  C   UNL     1      -4.922   1.976   0.000  1.00  0.00     0.032 A 
HETATM   12  C   UNL     1      -3.623   1.226   0.000  1.00  0.00     0.033 A 
HETATM   13  C   UNL     1      -3.623  -0.275   0.000  1.00  0.00     0.003 A 
HETATM   14  C   UNL     1      -4.922  -1.024   0.000  1.00  0.00     0.034 A 
HETATM   15  C   UNL     1      -4.922  -2.525   0.000  1.00  0.00     0.110 A 
HETATM   16  O   UNL     1      -6.221  -3.275   0.000  1.00  0.00    -0.195 OA
HETATM   17  C   UNL     1      -3.623  -3.275   0.000  1.00  0.00     0.061 A 
HETATM   18  C   UNL     1      -2.324  -2.525   0.000  1.00  0.00     0.061 A 
HETATM   19  C   UNL     1      -2.324  -1.024   0.000  1.00  0.00     0.105 A 
HETATM   20  O   UNL     1      -1.024  -0.275   0.000  1.00  0.00    -0.195 OA
ENDROOT
BRANCH   2  21
HETATM   21  O   UNL     1     -10.359   4.586   0.000  1.00  0.00    -0.354 OA
HETATM   22  C   UNL     1     -11.851   4.743   0.000  1.00  0.00     0.174 C 
ENDBRANCH   2  21
TORSDOF 1
