REMARK  6 active torsions:
REMARK  status: ('A' for Active; 'I' for Inactive)
REMARK    1  A    between atoms: C_1  and  O_7 
REMARK    2  A    between atoms: C_4  and  C_14 
REMARK    3  A    between atoms: O_7  and  C_8 
REMARK    4  A    between atoms: C_14  and  C_15 
REMARK    5  A    between atoms: C_15  and  C_16 
REMARK    6  A    between atoms: C_16  and  C_18 
ROOT
HETATM    1  C   UNL     1      11.316   4.399   0.000  1.00  0.00     0.115 A 
HETATM    2  C   UNL     1      10.017   3.650   0.000  1.00  0.00     0.030 A 
HETATM    3  C   UNL     1       8.718   4.399   0.000  1.00  0.00     0.003 A 
HETATM    4  C   UNL     1       8.718   5.899   0.000  1.00  0.00     0.000 A 
HETATM    5  C   UNL     1      10.017   6.649   0.000  1.00  0.00     0.003 A 
HETATM    6  C   UNL     1      11.316   5.899   0.000  1.00  0.00     0.030 A 
ENDROOT
BRANCH   4   7
HETATM    7  C   UNL     1       7.419   6.649   0.000  1.00  0.00     0.003 C 
BRANCH   7   8
HETATM    8  C   UNL     1       7.419   8.149   0.000  1.00  0.00     0.033 C 
BRANCH   8   9
HETATM    9  C   UNL     1       6.120   8.899   0.000  1.00  0.00     0.152 C 
HETATM   10  O   UNL     1       4.821   8.149   0.000  1.00  0.00    -0.224 OA
BRANCH   9  11
HETATM   11  C   UNL     1       6.120  10.399   0.000  1.00  0.00     0.028 C 
HETATM   12  C   UNL     1       6.120  11.899   0.000  1.00  0.00     0.003 C 
HETATM   13  C   UNL     1       7.620  10.399   0.000  1.00  0.00     0.003 C 
HETATM   14  C   UNL     1       4.620  10.399   0.000  1.00  0.00     0.003 C 
ENDBRANCH   9  11
ENDBRANCH   8   9
ENDBRANCH   7   8
ENDBRANCH   4   7
BRANCH   1  15
HETATM   15  O   UNL     1      12.615   3.650   0.000  1.00  0.00    -0.359 OA
BRANCH  15  16
HETATM   16  C   UNL     1      12.615   2.150   0.000  1.00  0.00     0.115 A 
HETATM   17  C   UNL     1      11.316   1.399   0.000  1.00  0.00     0.030 A 
HETATM   18  C   UNL     1      11.316  -0.101   0.000  1.00  0.00     0.003 A 
HETATM   19  C   UNL     1      12.615  -0.851   0.000  1.00  0.00     0.000 A 
HETATM   20  C   UNL     1      13.914  -0.101   0.000  1.00  0.00     0.003 A 
HETATM   21  C   UNL     1      13.914   1.399   0.000  1.00  0.00     0.030 A 
ENDBRANCH  15  16
ENDBRANCH   1  15
TORSDOF 6
