REMARK  4 active torsions:
REMARK  status: ('A' for Active; 'I' for Inactive)
REMARK    1  A    between atoms: C_5  and  C_6 
REMARK    2  A    between atoms: C_6  and  C_7 
REMARK    3  A    between atoms: C_7  and  C_10 
REMARK    4  A    between atoms: C_10  and  C_12 
ROOT
HETATM    1  C   UNL     1      -6.221  -0.275   0.000  1.00  0.00     0.059 C 
HETATM    2  C   UNL     1      -6.221   1.226   0.000  1.00  0.00     0.019 C 
HETATM    3  N   UNL     1      -6.221   2.725   0.000  1.00  0.00    -0.096 N 
ENDROOT
BRANCH   1   4
HETATM    4  C   UNL     1      -7.520  -1.024   0.000  1.00  0.00     0.074 C 
BRANCH   4   5
HETATM    5  C   UNL     1      -8.819  -0.275   0.000  1.00  0.00     0.262 A 
HETATM    6  N   UNL     1     -10.189  -0.885   0.000  1.00  0.00     0.337 N 
HETATM    7  C   UNL     1     -11.193   0.230   0.000  1.00  0.00     0.290 A 
HETATM    8  C   UNL     1     -10.443   1.529   0.000  1.00  0.00     0.040 A 
HETATM    9  C   UNL     1      -8.976   1.217   0.000  1.00  0.00     0.038 A 
ENDBRANCH   4   5
ENDBRANCH   1   4
BRANCH   1  10
HETATM   10  C   UNL     1      -4.922  -1.024   0.000  1.00  0.00     0.128 C 
HETATM   11  O   UNL     1      -3.623  -0.275   0.000  1.00  0.00    -0.191 OA
BRANCH  10  12
HETATM   12  C   UNL     1      -4.922  -2.525   0.000  1.00  0.00    -0.018 A 
HETATM   13  C   UNL     1      -3.623  -3.275   0.000  1.00  0.00     0.024 A 
HETATM   14  C   UNL     1      -3.623  -4.774   0.000  1.00  0.00     0.004 A 
HETATM   15  C   UNL     1      -4.922  -5.524   0.000  1.00  0.00     0.001 A 
HETATM   16  C   UNL     1      -6.221  -4.774   0.000  1.00  0.00     0.004 A 
HETATM   17  C   UNL     1      -6.221  -3.275   0.000  1.00  0.00     0.024 A 
ENDBRANCH  10  12
ENDBRANCH   1  10
TORSDOF 4
