REMARK  3 active torsions:
REMARK  status: ('A' for Active; 'I' for Inactive)
REMARK    1  A    between atoms: C_1  and  C_6 
REMARK    2  A    between atoms: N_2  and  C_18 
REMARK    3  A    between atoms: C_5  and  C_13 
ROOT
HETATM    1  C   UNL     1       6.349   5.279   0.000  1.00  0.00     0.092 A 
HETATM    2  N   UNL     1       5.468   4.065   0.000  1.00  0.00    -0.242 N 
HETATM    3  N   UNL     1       6.349   2.852   0.000  1.00  0.00     0.010 NA
HETATM    4  N   UNL     1       7.776   3.315   0.000  1.00  0.00    -0.153 NA
HETATM    5  C   UNL     1       7.776   4.815   0.000  1.00  0.00     0.150 A 
ENDROOT
BRANCH   1   6
HETATM    6  C   UNL     1       5.886   6.705   0.000  1.00  0.00    -0.025 A 
HETATM    7  C   UNL     1       4.419   7.017   0.000  1.00  0.00     0.029 A 
HETATM    8  C   UNL     1       3.955   8.444   0.000  1.00  0.00     0.038 A 
HETATM    9  C   UNL     1       4.959   9.559   0.000  1.00  0.00     0.014 A 
HETATM   10  C   UNL     1       6.426   9.247   0.000  1.00  0.00     0.038 A 
HETATM   11 CL   UNL     1       4.495  10.985   0.000  1.00  0.00    -0.092 Cl
HETATM   12  C   UNL     1       6.890   7.820   0.000  1.00  0.00     0.029 A 
ENDBRANCH   1   6
BRANCH   2  13
HETATM   13  C   UNL     1       3.968   4.065   0.000  1.00  0.00     0.035 A 
HETATM   14  C   UNL     1       3.218   5.364   0.000  1.00  0.00     0.046 A 
HETATM   15  C   UNL     1       1.718   5.364   0.000  1.00  0.00     0.040 A 
HETATM   16  C   UNL     1       0.968   4.065   0.000  1.00  0.00     0.014 A 
HETATM   17 CL   UNL     1      -0.532   4.065   0.000  1.00  0.00    -0.092 Cl
HETATM   18  C   UNL     1       1.718   2.766   0.000  1.00  0.00     0.040 A 
HETATM   19  C   UNL     1       3.218   2.766   0.000  1.00  0.00     0.046 A 
ENDBRANCH   2  13
BRANCH   5  20
HETATM   20  C   UNL     1       8.989   5.697   0.000  1.00  0.00     0.174 A 
HETATM   21  N   UNL     1      10.360   5.087   0.000  1.00  0.00    -0.252 NA
HETATM   22  C   UNL     1      11.573   5.968   0.000  1.00  0.00     0.129 A 
HETATM   23  C   UNL     1      11.417   7.460   0.000  1.00  0.00     0.053 A 
HETATM   24  C   UNL     1      10.046   8.070   0.000  1.00  0.00     0.129 A 
HETATM   25  N   UNL     1       8.833   7.189   0.000  1.00  0.00    -0.252 NA
ENDBRANCH   5  20
TORSDOF 3
