REMARK  0 active torsions:
REMARK  status: ('A' for Active; 'I' for Inactive)
ROOT
HETATM    1  C   UNL     1       1.200   4.242   0.000  1.00  0.00     0.011 A 
HETATM    2  C   UNL     1       1.200   2.741   0.000  1.00  0.00     0.022 A 
HETATM    3  C   UNL     1       2.499   1.992   0.000  1.00  0.00    -0.043 A 
HETATM    4  C   UNL     1       3.798   2.741   0.000  1.00  0.00     0.001 A 
HETATM    5  C   UNL     1       3.798   4.242   0.000  1.00  0.00     0.036 A 
HETATM    6  C   UNL     1       2.499   4.992   0.000  1.00  0.00     0.044 A 
HETATM    7  C   UNL     1       5.225   2.278   0.000  1.00  0.00    -0.005 A 
HETATM    8  C   UNL     1       6.106   3.491   0.000  1.00  0.00     0.057 A 
HETATM    9  N   UNL     1       5.225   4.705   0.000  1.00  0.00    -0.329 N 
HETATM   10  C   UNL     1       5.835   0.908   0.000  1.00  0.00     0.033 A 
HETATM   11  C   UNL     1       7.327   0.751   0.000  1.00  0.00     0.033 A 
HETATM   12  C   UNL     1       8.208   1.964   0.000  1.00  0.00     0.003 A 
HETATM   13  C   UNL     1       7.598   3.335   0.000  1.00  0.00     0.034 A 
HETATM   14  C   UNL     1       9.700   1.808   0.000  1.00  0.00     0.105 A 
HETATM   15  C   UNL     1       8.480   4.548   0.000  1.00  0.00     0.110 A 
HETATM   16  C   UNL     1       2.499   0.491   0.000  1.00  0.00     0.026 C 
HETATM   17  C   UNL     1       5.688   6.132   0.000  1.00  0.00     0.130 C 
HETATM   18  O   UNL     1       7.870   5.918   0.000  1.00  0.00    -0.195 OA
HETATM   19  C   UNL     1       9.972   4.391   0.000  1.00  0.00     0.061 A 
HETATM   20  C   UNL     1      10.582   3.021   0.000  1.00  0.00     0.061 A 
HETATM   21  O   UNL     1      10.310   0.437   0.000  1.00  0.00    -0.195 OA
ENDROOT
TORSDOF 0
