REMARK  2 active torsions:
REMARK  status: ('A' for Active; 'I' for Inactive)
REMARK    1  A    between atoms: C_4  and  N_5 
REMARK    2  A    between atoms: C_13  and  N_14 
ROOT
HETATM    1  O   UNL     1       3.573   8.929   0.000  1.00  0.00    -0.193 OA
HETATM    2  C   UNL     1       3.573   7.429   0.000  1.00  0.00     0.128 A 
HETATM    3  C   UNL     1       2.273   6.679   0.000  1.00  0.00     0.102 A 
HETATM    4  C   UNL     1       2.273   5.179   0.000  1.00  0.00     0.078 A 
HETATM    5  C   UNL     1       3.573   4.429   0.000  1.00  0.00     0.128 A 
HETATM    6  O   UNL     1       3.573   2.929   0.000  1.00  0.00    -0.193 OA
HETATM    7  C   UNL     1       4.872   5.179   0.000  1.00  0.00     0.102 A 
HETATM    8  C   UNL     1       4.872   6.679   0.000  1.00  0.00     0.078 A 
ENDROOT
BRANCH   4   9
HETATM    9  N   UNL     1       0.975   4.429   0.000  1.00  0.00    -0.279 N 
HETATM   10  C   UNL     1      -0.396   5.039   0.000  1.00  0.00     0.123 A 
HETATM   11  C   UNL     1      -1.399   3.924   0.000  1.00  0.00     0.047 A 
HETATM   12  C   UNL     1      -0.649   2.625   0.000  1.00  0.00     0.116 A 
HETATM   13  N   UNL     1       0.818   2.937   0.000  1.00  0.00    -0.121 NA
ENDBRANCH   4   9
BRANCH   8  14
HETATM   14  N   UNL     1       6.171   7.429   0.000  1.00  0.00    -0.279 N 
HETATM   15  C   UNL     1       7.541   6.819   0.000  1.00  0.00     0.123 A 
HETATM   16  C   UNL     1       8.545   7.933   0.000  1.00  0.00     0.047 A 
HETATM   17  C   UNL     1       7.795   9.232   0.000  1.00  0.00     0.116 A 
HETATM   18  N   UNL     1       6.327   8.920   0.000  1.00  0.00    -0.121 NA
ENDBRANCH   8  14
TORSDOF 2
