REMARK  5 active torsions:
REMARK  status: ('A' for Active; 'I' for Inactive)
REMARK    1  A    between atoms: C_13  and  O_26 
REMARK    2  A    between atoms: C_14  and  C_24 
REMARK    3  A    between atoms: C_18  and  N_22 
REMARK    4  A    between atoms: N_22  and  N_23 
REMARK    5  A    between atoms: N_23  and  C_24 
ROOT
HETATM    1  O   UNL     1     -12.105 -10.968   0.000  1.00  0.00    -0.150 OA
HETATM    2  N   UNL     1     -10.806  -8.718   0.000  1.00  0.00    -0.268 N 
HETATM    3  O   UNL     1      -9.507  -6.468   0.000  1.00  0.00    -0.169 OA
HETATM    4  N   UNL     1      -9.507 -10.968   0.000  1.00  0.00    -0.276 N 
HETATM    5  H   UNL     1      -6.318  -6.828   0.000  1.00  0.00     0.184 HD
HETATM    6  N   UNL     1      -6.781  -8.255   0.000  1.00  0.00    -0.180 N 
HETATM    7  N   UNL     1      -6.781 -10.682   0.000  1.00  0.00    -0.171 N 
HETATM    8  H   UNL     1      -6.318 -12.108   0.000  1.00  0.00     0.186 HD
HETATM    9  C   UNL     1      -9.507  -7.968   0.000  1.00  0.00     0.216 A 
HETATM   10  C   UNL     1      -8.208  -8.718   0.000  1.00  0.00     0.148 A 
HETATM   11  C   UNL     1      -8.208 -10.218   0.000  1.00  0.00     0.159 A 
HETATM   12  C   UNL     1      -5.899  -9.468   0.000  1.00  0.00     0.725 A 
HETATM   13  C   UNL     1     -10.806 -10.218   0.000  1.00  0.00     0.266 A 
HETATM   14  C   UNL     1     -12.105  -7.968   0.000  1.00  0.00     0.136 C 
HETATM   15  C   UNL     1      -9.507 -12.468   0.000  1.00  0.00     0.136 C 
ENDROOT
BRANCH  12  16
HETATM   16  N   UNL     1      -4.399  -9.468   0.000  1.00  0.00     0.038 NA
BRANCH  16  17
HETATM   17  N   UNL     1      -3.650  -8.169   0.000  1.00  0.00    -0.159 NA
BRANCH  17  18
HETATM   18  C   UNL     1      -2.150  -8.169   0.000  1.00  0.00     0.150 C 
BRANCH  18  19
HETATM   19  C   UNL     1      -1.399  -6.870   0.000  1.00  0.00     0.033 A 
HETATM   20  C   UNL     1      -2.150  -5.571   0.000  1.00  0.00     0.055 A 
HETATM   21  C   UNL     1      -1.399  -4.272   0.000  1.00  0.00     0.093 A 
HETATM   22  C   UNL     1       0.101  -4.272   0.000  1.00  0.00     0.127 A 
HETATM   23  C   UNL     1       0.851  -5.571   0.000  1.00  0.00     0.056 A 
HETATM   24  O   UNL     1       0.851  -2.973   0.000  1.00  0.00    -0.193 OA
HETATM   25  C   UNL     1       0.101  -6.870   0.000  1.00  0.00     0.009 A 
BRANCH  21  26
HETATM   26  O   UNL     1      -2.150  -2.973   0.000  1.00  0.00    -0.331 OA
HETATM   27  C   UNL     1      -1.399  -1.674   0.000  1.00  0.00     0.181 C 
ENDBRANCH  21  26
ENDBRANCH  18  19
ENDBRANCH  17  18
ENDBRANCH  16  17
ENDBRANCH  12  16
TORSDOF 5
