REMARK  1 active torsions:
REMARK  status: ('A' for Active; 'I' for Inactive)
REMARK    1  A    between atoms: C_5  and  O_17 
ROOT
HETATM    1  C   UNL     1      -7.245  -1.500   0.000  1.00  0.00     0.078 A 
HETATM    2  C   UNL     1      -8.544  -0.750   0.000  1.00  0.00     0.048 A 
HETATM    3  C   UNL     1      -9.843  -1.500   0.000  1.00  0.00     0.013 A 
HETATM    4  C   UNL     1      -9.843  -3.000   0.000  1.00  0.00     0.053 A 
HETATM    5  C   UNL     1      -8.544  -3.750   0.000  1.00  0.00     0.090 A 
HETATM    6  C   UNL     1      -7.245  -3.000   0.000  1.00  0.00     0.113 A 
HETATM    7  N   UNL     1      -5.946  -0.750   0.000  1.00  0.00    -0.251 NA
HETATM    8  C   UNL     1      -4.647  -1.500   0.000  1.00  0.00     0.076 A 
HETATM    9  C   UNL     1      -4.647  -3.000   0.000  1.00  0.00     0.077 A 
HETATM   10  N   UNL     1      -5.946  -3.750   0.000  1.00  0.00    -0.245 NA
HETATM   11  C   UNL     1      -3.348  -0.750   0.000  1.00  0.00     0.068 A 
HETATM   12  C   UNL     1      -2.049  -1.500   0.000  1.00  0.00    -0.045 A 
HETATM   13  C   UNL     1      -2.049  -3.000   0.000  1.00  0.00    -0.045 A 
HETATM   14  C   UNL     1      -3.348  -3.750   0.000  1.00  0.00     0.068 A 
HETATM   15  C   UNL     1      -0.750  -0.750   0.000  1.00  0.00     0.026 C 
HETATM   16  C   UNL     1      -0.750  -3.750   0.000  1.00  0.00     0.026 C 
ENDROOT
BRANCH   5  17
HETATM   17  O   UNL     1      -8.544  -5.250   0.000  1.00  0.00    -0.331 OA
HETATM   18  C   UNL     1      -7.245  -6.000   0.000  1.00  0.00     0.181 C 
ENDBRANCH   5  17
TORSDOF 1
