REMARK  1 active torsions:
REMARK  status: ('A' for Active; 'I' for Inactive)
REMARK    1  A    between atoms: N_6  and  N_16 
ROOT
HETATM    1 CL   UNL     1      -6.125  -7.231   0.000  1.00  0.00    -0.081 Cl
HETATM    2 CL   UNL     1      -4.361  -9.658   0.000  1.00  0.00    -0.081 Cl
HETATM    3 CL   UNL     1      -4.905  -4.490   0.000  1.00  0.00    -0.081 Cl
HETATM    4 CL   UNL     1      -1.378  -9.345   0.000  1.00  0.00    -0.081 Cl
HETATM    5  O   UNL     1      -2.113  -2.907   0.000  1.00  0.00    -0.169 OA
HETATM    6  N   UNL     1      -0.223  -4.797   0.000  1.00  0.00    -0.205 N 
HETATM    7  O   UNL     1       0.991  -7.179   0.000  1.00  0.00    -0.169 OA
HETATM    8  C   UNL     1      -1.649  -4.334   0.000  1.00  0.00     0.215 A 
HETATM    9  C   UNL     1      -2.531  -5.547   0.000  1.00  0.00     0.060 A 
HETATM   10  C   UNL     1      -4.023  -5.704   0.000  1.00  0.00     0.073 A 
HETATM   11  C   UNL     1      -4.633  -7.074   0.000  1.00  0.00     0.080 A 
HETATM   12  C   UNL     1      -1.649  -6.761   0.000  1.00  0.00     0.060 A 
HETATM   13  C   UNL     1      -3.751  -8.288   0.000  1.00  0.00     0.080 A 
HETATM   14  C   UNL     1      -0.223  -6.297   0.000  1.00  0.00     0.215 A 
HETATM   15  C   UNL     1      -2.260  -8.131   0.000  1.00  0.00     0.073 A 
ENDROOT
BRANCH   6  16
HETATM   16  N   UNL     1       0.991  -3.916   0.000  1.00  0.00    -0.280 N 
HETATM   17  C   UNL     1       2.361  -4.526   0.000  1.00  0.00     0.147 C 
HETATM   18  C   UNL     1       0.834  -2.424   0.000  1.00  0.00     0.147 C 
ENDBRANCH   6  16
TORSDOF 1
