REMARK  6 active torsions:
REMARK  status: ('A' for Active; 'I' for Inactive)
REMARK    1  A    between atoms: N_2  and  C_28 
REMARK    2  A    between atoms: N_5  and  C_33 
REMARK    3  A    between atoms: C_11  and  C_28 
REMARK    4  A    between atoms: C_14  and  C_29 
REMARK    5  A    between atoms: C_20  and  C_33 
REMARK    6  A    between atoms: C_21  and  C_29 
ROOT
HETATM    1  C   UNL     1      -0.924   8.899   0.000  1.00  0.00     0.001 A 
HETATM    2  C   UNL     1       0.576   8.899   0.000  1.00  0.00     0.000 A 
HETATM    3  C   UNL     1      -0.174   7.601   0.000  1.00  0.00     0.000 A 
ENDROOT
BRANCH   1   4
HETATM    4  C   UNL     1      -0.924  10.399   0.000  1.00  0.00     0.009 A 
HETATM    5  C   UNL     1       0.375  11.149   0.000  1.00  0.00     0.026 A 
HETATM    6  C   UNL     1       0.375  12.649   0.000  1.00  0.00     0.004 A 
HETATM    7  C   UNL     1      -0.924  13.399   0.000  1.00  0.00     0.131 A 
HETATM    8  C   UNL     1      -2.223  12.649   0.000  1.00  0.00     0.060 A 
HETATM    9  O   UNL     1      -0.924  14.899   0.000  1.00  0.00    -0.190 OA
HETATM   10 CL   UNL     1      -3.522  13.399   0.000  1.00  0.00    -0.085 Cl
HETATM   11  C   UNL     1      -2.223  11.149   0.000  1.00  0.00     0.040 A 
BRANCH   6  12
HETATM   12  C   UNL     1       1.674  13.399   0.000  1.00  0.00     0.122 C 
BRANCH  12  13
HETATM   13  N   UNL     1       2.973  12.649   0.000  1.00  0.00    -0.361 N 
HETATM   14  C   UNL     1       2.973  11.149   0.000  1.00  0.00     0.130 A 
HETATM   15  C   UNL     1       4.272  10.399   0.000  1.00  0.00     0.166 A 
HETATM   16  O   UNL     1       5.571  11.149   0.000  1.00  0.00    -0.350 OA
HETATM   17  C   UNL     1       5.571  12.649   0.000  1.00  0.00     0.166 A 
HETATM   18  C   UNL     1       4.272  13.399   0.000  1.00  0.00     0.130 A 
ENDBRANCH  12  13
ENDBRANCH   6  12
ENDBRANCH   1   4
BRANCH   1  19
HETATM   19  C   UNL     1      -2.223   8.149   0.000  1.00  0.00     0.009 A 
HETATM   20  C   UNL     1      -2.223   6.649   0.000  1.00  0.00     0.026 A 
HETATM   21  C   UNL     1      -3.522   5.899   0.000  1.00  0.00     0.004 A 
HETATM   22  C   UNL     1      -4.821   6.649   0.000  1.00  0.00     0.131 A 
HETATM   23  C   UNL     1      -4.821   8.149   0.000  1.00  0.00     0.060 A 
HETATM   24  O   UNL     1      -6.120   5.899   0.000  1.00  0.00    -0.190 OA
HETATM   25 CL   UNL     1      -6.120   8.899   0.000  1.00  0.00    -0.085 Cl
HETATM   26  C   UNL     1      -3.522   8.899   0.000  1.00  0.00     0.040 A 
BRANCH  21  27
HETATM   27  C   UNL     1      -3.522   4.399   0.000  1.00  0.00     0.122 C 
BRANCH  27  28
HETATM   28  N   UNL     1      -2.223   3.650   0.000  1.00  0.00    -0.361 N 
HETATM   29  C   UNL     1      -0.924   4.399   0.000  1.00  0.00     0.130 A 
HETATM   30  C   UNL     1       0.375   3.650   0.000  1.00  0.00     0.166 A 
HETATM   31  O   UNL     1       0.375   2.150   0.000  1.00  0.00    -0.350 OA
HETATM   32  C   UNL     1      -0.924   1.399   0.000  1.00  0.00     0.166 A 
HETATM   33  C   UNL     1      -2.223   2.150   0.000  1.00  0.00     0.130 A 
ENDBRANCH  27  28
ENDBRANCH  21  27
ENDBRANCH   1  19
TORSDOF 6
