REMARK  0 active torsions:
REMARK  status: ('A' for Active; 'I' for Inactive)
ROOT
HETATM    1  N   UNL     1      -2.714  -6.077   0.000  1.00  0.00    -0.233 NA
HETATM    2  N   UNL     1      -2.174  -3.535   0.000  1.00  0.00    -0.228 NA
HETATM    3 CL   UNL     1      -0.783  -7.815   0.000  1.00  0.00    -0.062 Cl
HETATM    4  H   UNL     1       0.507  -1.466   0.000  1.00  0.00     0.162 HD
HETATM    5  N   UNL     1       0.507  -2.966   0.000  1.00  0.00    -0.359 N 
HETATM    6  C   UNL     1       1.720  -3.847   0.000  1.00  0.00     0.104 A 
HETATM    7  C   UNL     1       1.257  -5.274   0.000  1.00  0.00     0.056 A 
HETATM    8  C   UNL     1      -0.243  -5.274   0.000  1.00  0.00     0.041 A 
HETATM    9  C   UNL     1      -0.707  -3.847   0.000  1.00  0.00     0.133 A 
HETATM   10  C   UNL     1      -1.247  -6.388   0.000  1.00  0.00     0.134 A 
HETATM   11  C   UNL     1      -3.178  -4.650   0.000  1.00  0.00     0.253 A 
ENDROOT
TORSDOF 0
