REMARK  1 active torsions:
REMARK  status: ('A' for Active; 'I' for Inactive)
REMARK    1  A    between atoms: N_11  and  C_12 
ROOT
HETATM    1  C   UNL     1       2.049   4.500   0.000  1.00  0.00     0.040 A 
HETATM    2  C   UNL     1       3.348   5.250   0.000  1.00  0.00     0.056 A 
HETATM    3  C   UNL     1       4.647   4.500   0.000  1.00  0.00     0.096 A 
HETATM    4  C   UNL     1       4.647   3.000   0.000  1.00  0.00    -0.010 A 
HETATM    5  C   UNL     1       3.348   2.250   0.000  1.00  0.00     0.060 A 
HETATM    6  C   UNL     1       2.049   3.000   0.000  1.00  0.00     0.157 A 
HETATM    7  O   UNL     1       0.750   2.250   0.000  1.00  0.00    -0.223 OA
HETATM    8  O   UNL     1       5.946   5.250   0.000  1.00  0.00    -0.233 OA
HETATM    9  C   UNL     1       5.946   2.250   0.000  1.00  0.00     0.030 A 
HETATM   10  C   UNL     1       7.245   3.000   0.000  1.00  0.00     0.126 A 
HETATM   11  N   UNL     1       7.245   4.500   0.000  1.00  0.00    -0.214 N 
ENDROOT
BRANCH  11  12
HETATM   12  C   UNL     1       8.544   5.250   0.000  1.00  0.00     0.299 C 
HETATM   13  O   UNL     1       8.544   6.750   0.000  1.00  0.00    -0.184 OA
ENDBRANCH  11  12
TORSDOF 1
