REMARK  4 active torsions:
REMARK  status: ('A' for Active; 'I' for Inactive)
REMARK    1  A    between atoms: C_13  and  O_17 
REMARK    2  A    between atoms: O_17  and  C_21 
REMARK    3  A    between atoms: C_21  and  C_23 
REMARK    4  A    between atoms: C_23  and  O_24 
ROOT
HETATM    1  O   UNL     1       5.946   6.750   0.000  1.00  0.00    -0.187 OA
HETATM    2  C   UNL     1       5.946   5.250   0.000  1.00  0.00     0.167 A 
HETATM    3  C   UNL     1       4.647   4.500   0.000  1.00  0.00     0.110 A 
HETATM    4  C   UNL     1       5.946   2.250   0.000  1.00  0.00     0.148 A 
HETATM    5  C   UNL     1       7.245   3.000   0.000  1.00  0.00     0.107 A 
HETATM    6  C   UNL     1       7.245   4.500   0.000  1.00  0.00     0.128 A 
HETATM    7  N   UNL     1       3.348   5.250   0.000  1.00  0.00    -0.224 NA
HETATM    8  C   UNL     1       3.348   2.250   0.000  1.00  0.00     0.180 A 
HETATM    9  O   UNL     1       5.946   0.750   0.000  1.00  0.00    -0.189 OA
HETATM   10  N   UNL     1       8.672   2.537   0.000  1.00  0.00    -0.308 N 
HETATM   11  C   UNL     1       9.553   1.323   0.000  1.00  0.00     0.115 A 
HETATM   12  C   UNL     1      10.980   1.786   0.000  1.00  0.00     0.079 A 
HETATM   13  C   UNL     1      10.980   3.287   0.000  1.00  0.00     0.110 A 
HETATM   14  C   UNL     1       9.553   3.750   0.000  1.00  0.00     0.163 A 
HETATM   15  N   UNL     1       8.672   4.963   0.000  1.00  0.00    -0.223 NA
HETATM   16  C   UNL     1       4.647   3.000   0.000  1.00  0.00     0.055 A 
HETATM   17  C   UNL     1       2.049   4.500   0.000  1.00  0.00     0.154 A 
HETATM   18  O   UNL     1       2.049   3.000   0.000  1.00  0.00    -0.313 OA
HETATM   19  C   UNL     1       0.750   5.250   0.000  1.00  0.00     0.080 C 
ENDROOT
BRANCH  13  20
HETATM   20  O   UNL     1      12.194   4.168   0.000  1.00  0.00    -0.303 OA
BRANCH  20  21
HETATM   21  C   UNL     1      13.564   3.558   0.000  1.00  0.00     0.303 C 
HETATM   22  O   UNL     1      13.721   2.066   0.000  1.00  0.00    -0.187 OA
BRANCH  21  23
HETATM   23  C   UNL     1      14.777   4.440   0.000  1.00  0.00     0.207 C 
BRANCH  23  24
HETATM   24  O   UNL     1      16.148   3.830   0.000  1.00  0.00    -0.346 OA
HETATM   25  C   UNL     1      17.361   4.711   0.000  1.00  0.00     0.175 C 
ENDBRANCH  23  24
ENDBRANCH  21  23
ENDBRANCH  20  21
ENDBRANCH  13  20
TORSDOF 4
