REMARK  3 active torsions:
REMARK  status: ('A' for Active; 'I' for Inactive)
REMARK    1  A    between atoms: C_2  and  C_28 
REMARK    2  A    between atoms: N_27  and  C_19 
REMARK    3  A    between atoms: C_15  and  C_21 
ROOT
HETATM    1  C   UNL     1      -3.227  -2.729   0.000  1.00  0.00     0.021 A 
HETATM    2  C   UNL     1      -1.928  -3.479   0.000  1.00  0.00    -0.052 A 
HETATM    3  C   UNL     1      -4.526  -3.479   0.000  1.00  0.00     0.005 A 
HETATM    4  C   UNL     1      -1.928  -4.979   0.000  1.00  0.00     0.022 A 
HETATM    5  C   UNL     1      -4.526  -4.979   0.000  1.00  0.00     0.004 A 
HETATM    6  C   UNL     1      -3.227  -5.729   0.000  1.00  0.00     0.010 A 
HETATM    7  C   UNL     1      -5.825  -5.729   0.000  1.00  0.00     0.016 A 
HETATM    8  C   UNL     1      -7.124  -4.979   0.000  1.00  0.00     0.004 A 
HETATM    9  C   UNL     1      -8.423  -5.729   0.000  1.00  0.00     0.001 A 
HETATM   10  C   UNL     1      -3.227  -7.229   0.000  1.00  0.00     0.043 A 
HETATM   11  C   UNL     1      -5.825  -7.229   0.000  1.00  0.00    -0.032 A 
HETATM   12  C   UNL     1      -8.423  -7.229   0.000  1.00  0.00     0.006 A 
HETATM   13  C   UNL     1      -4.526  -7.979   0.000  1.00  0.00     0.029 A 
HETATM   14  C   UNL     1      -7.124  -7.979   0.000  1.00  0.00     0.037 A 
HETATM   15  C   UNL     1      -8.088  -9.128   0.000  1.00  0.00     0.006 C 
HETATM   16  C   UNL     1      -5.825  -4.229   0.000  1.00  0.00     0.004 A 
HETATM   17  C   UNL     1      -6.160  -9.128   0.000  1.00  0.00     0.109 A 
HETATM   18  N   UNL     1      -4.682  -8.867   0.000  1.00  0.00    -0.338 N 
ENDROOT
BRANCH  18  19
HETATM   19  C   UNL     2      -3.716 -10.041   0.000  1.00  0.00     0.015 A 
HETATM   20  C   UNL     2      -3.716 -11.541   0.000  1.00  0.00     0.039 A 
HETATM   21  C   UNL     2      -2.417 -12.291   0.000  1.00  0.00     0.006 A 
HETATM   22  C   UNL     2      -1.117 -11.541   0.000  1.00  0.00     0.011 A 
HETATM   23  C   UNL     2      -1.117 -10.041   0.000  1.00  0.00     0.093 A 
HETATM   24  C   UNL     2      -2.417  -9.291   0.000  1.00  0.00     0.050 A 
BRANCH  23  25
HETATM   25  C   UNL     2       0.181  -9.291   0.000  1.00  0.00     0.185 C 
HETATM   26  O   UNL     2       0.181  -7.791   0.000  1.00  0.00    -0.647 OA
HETATM   27  O   UNL     2       1.480 -10.041   0.000  1.00  0.00    -0.647 OA
ENDBRANCH  23  25
ENDBRANCH  18  19
BRANCH   2  28
HETATM   28  C   UNL     1      -0.628  -2.729   0.000  1.00  0.00    -0.051 C 
HETATM   29  C   UNL     1       0.670  -3.479   0.000  1.00  0.00     0.026 C 
HETATM   30  C   UNL     1      -0.628  -1.229   0.000  1.00  0.00     0.026 C 
ENDBRANCH   2  28
TORSDOF 3
