REMARK  0 active torsions:
REMARK  status: ('A' for Active; 'I' for Inactive)
ROOT
HETATM    1  C   UNL     1       5.174   1.172   0.000  1.00  0.00     0.166 A 
HETATM    2  C   UNL     1       2.747   1.172   0.000  1.00  0.00     0.151 A 
HETATM    3  S   UNL     1       1.320   1.636   0.000  1.00  0.00    -0.052 SA
HETATM    4  S   UNL     1       3.210  -0.254   0.000  1.00  0.00    -0.020 SA
HETATM    5  N   UNL     1       3.960   2.054   0.000  1.00  0.00    -0.323 N 
HETATM    6  H   UNL     1       3.960   3.554   0.000  1.00  0.00     0.169 HD
HETATM    7  S   UNL     1       4.710  -0.254   0.000  1.00  0.00    -0.017 SA
HETATM    8  N   UNL     1       6.600   1.636   0.000  1.00  0.00    -0.074 NA
ENDROOT
TORSDOF 0
