REMARK  0 active torsions:
REMARK  status: ('A' for Active; 'I' for Inactive)
ROOT
HETATM    1  C   UNL     1      -7.865   0.675   0.000  1.00  0.00     0.098 A 
HETATM    2  C   UNL     1      -6.566   1.425   0.000  1.00  0.00     0.075 A 
HETATM    3  C   UNL     1      -5.267   0.675   0.000  1.00  0.00    -0.035 A 
HETATM    4  C   UNL     1      -5.267  -0.825   0.000  1.00  0.00     0.010 A 
HETATM    5  C   UNL     1      -6.566  -1.575   0.000  1.00  0.00     0.019 A 
HETATM    6  C   UNL     1      -7.865  -0.825   0.000  1.00  0.00     0.112 A 
HETATM    7  O   UNL     1      -9.164   1.425   0.000  1.00  0.00    -0.330 OA
HETATM    8  C   UNL     1     -10.463   0.675   0.000  1.00  0.00     0.181 A 
HETATM    9  O   UNL     1      -9.164  -1.575   0.000  1.00  0.00    -0.327 OA
HETATM   10  C   UNL     1     -10.463  -0.825   0.000  1.00  0.00     0.181 A 
HETATM   11  C   UNL     1      -3.968   1.425   0.000  1.00  0.00     0.049 A 
HETATM   12  C   UNL     1      -2.669   0.675   0.000  1.00  0.00     0.130 A 
HETATM   13  N   UNL     1      -2.669  -0.825   0.000  1.00  0.00    -0.272 NA
HETATM   14  C   UNL     1      -3.968  -1.575   0.000  1.00  0.00     0.084 A 
HETATM   15  C   UNL     1      -3.968  -3.075   0.000  1.00  0.00     0.176 A 
HETATM   16  O   UNL     1      -2.491  -2.814   0.000  1.00  0.00    -0.216 OA
HETATM   17  C   UNL     1      -5.445  -2.814   0.000  1.00  0.00    -0.010 A 
HETATM   18  C   UNL     1      -6.410  -3.964   0.000  1.00  0.00     0.025 A 
HETATM   19  C   UNL     1      -5.896  -5.373   0.000  1.00  0.00     0.004 A 
HETATM   20  C   UNL     1      -4.419  -5.634   0.000  1.00  0.00     0.004 A 
HETATM   21  C   UNL     1      -3.455  -4.484   0.000  1.00  0.00     0.040 A 
ENDROOT
TORSDOF 0
