REMARK  4 active torsions:
REMARK  status: ('A' for Active; 'I' for Inactive)
REMARK    1  A    between atoms: C_6  and  C_8 
REMARK       I    between atoms: C_8  and  N_30 
REMARK       I    between atoms: C_10  and  N_30 
REMARK       I    between atoms: C_10  and  N_31 
REMARK    2  A    between atoms: C_12  and  N_31 
REMARK    3  A    between atoms: C_15  and  O_18 
REMARK    4  A    between atoms: O_18  and  C_19 
ROOT
HETATM    1 CL   UNL     1     -11.142  -9.000   0.000  1.00  0.00     0.000 Cl
ENDROOT
TORSDOF 4
