REMARK  5 active torsions:
REMARK  status: ('A' for Active; 'I' for Inactive)
REMARK    1  A    between atoms: N_1  and  N_2 
REMARK    2  A    between atoms: N_1  and  C_11 
REMARK    3  A    between atoms: N_2  and  C_13 
REMARK    4  A    between atoms: C_4  and  O_20 
REMARK    5  A    between atoms: C_16  and  S_22 
ROOT
HETATM    1  C   UNL     1     -10.044  -9.000   0.000  1.00  0.00     0.084 A 
HETATM    2  C   UNL     1     -10.044  -7.500   0.000  1.00  0.00     0.090 A 
HETATM    3  C   UNL     1      -8.745  -9.750   0.000  1.00  0.00    -0.010 A 
HETATM    4  C   UNL     1      -8.745 -11.250   0.000  1.00  0.00     0.027 A 
HETATM    5  C   UNL     1      -7.446 -12.000   0.000  1.00  0.00     0.005 A 
HETATM    6  C   UNL     1      -8.745  -6.750   0.000  1.00  0.00     0.099 A 
HETATM    7  C   UNL     1      -7.446  -9.000   0.000  1.00  0.00    -0.009 A 
HETATM    8  C   UNL     1      -6.147 -11.250   0.000  1.00  0.00     0.005 A 
HETATM    9  C   UNL     1      -7.446  -7.500   0.000  1.00  0.00     0.083 A 
HETATM   10  C   UNL     1      -6.147  -9.750   0.000  1.00  0.00     0.027 A 
HETATM   11  N   UNL     1     -11.343  -9.750   0.000  1.00  0.00    -0.099 NA
ENDROOT
BRANCH   9  12
HETATM   12  N   UNL     1      -6.147  -6.750   0.000  1.00  0.00    -0.153 NA
BRANCH  12  13
HETATM   13  N   UNL     1      -4.848  -7.500   0.000  1.00  0.00    -0.157 NA
BRANCH  13  14
HETATM   14  C   UNL     1      -3.549  -6.750   0.000  1.00  0.00     0.059 A 
HETATM   15  C   UNL     1      -2.250  -7.500   0.000  1.00  0.00     0.061 A 
HETATM   16  C   UNL     1      -0.951  -6.750   0.000  1.00  0.00     0.137 A 
HETATM   17  C   UNL     1      -0.951  -5.250   0.000  1.00  0.00     0.019 A 
HETATM   18  C   UNL     1      -2.250  -4.500   0.000  1.00  0.00     0.007 A 
HETATM   19  C   UNL     1      -3.549  -5.250   0.000  1.00  0.00     0.043 A 
BRANCH  16  20
HETATM   20  S   UNL     1       0.348  -7.500   0.000  1.00  0.00     0.281 S 
HETATM   21  O   UNL     1       1.098  -6.201   0.000  1.00  0.00    -0.201 OA
HETATM   22  O   UNL     1      -0.402  -8.799   0.000  1.00  0.00    -0.201 OA
HETATM   23  N   UNL     1       1.647  -8.250   0.000  1.00  0.00    -0.047 N 
ENDBRANCH  16  20
ENDBRANCH  13  14
ENDBRANCH  12  13
ENDBRANCH   9  12
BRANCH   2  24
HETATM   24  O   UNL     1     -11.343  -6.750   0.000  1.00  0.00    -0.331 OA
HETATM   25  C   UNL     1     -11.343  -5.250   0.000  1.00  0.00     0.181 C 
ENDBRANCH   2  24
TORSDOF 5
