REMARK  1 active torsions:
REMARK  status: ('A' for Active; 'I' for Inactive)
REMARK    1  A    between atoms: O_1  and  C_2 
ROOT
HETATM    1  C   UNL     1       3.348   4.500   0.000  1.00  0.00     0.114 A 
HETATM    2  C   UNL     1       3.348   3.000   0.000  1.00  0.00     0.134 A 
HETATM    3  C   UNL     1       4.647   5.250   0.000  1.00  0.00     0.031 A 
HETATM    4  C   UNL     1       4.647   2.250   0.000  1.00  0.00     0.079 A 
HETATM    5  C   UNL     1       5.946   4.500   0.000  1.00  0.00    -0.005 A 
HETATM    6  C   UNL     1       5.946   3.000   0.000  1.00  0.00    -0.032 A 
HETATM    7  O   UNL     1       5.946   7.500   0.000  1.00  0.00    -0.324 OA
HETATM    8  C   UNL     1       7.245   6.750   0.000  1.00  0.00     0.116 A 
HETATM    9  C   UNL     1       7.245   2.250   0.000  1.00  0.00     0.066 A 
HETATM   10  C   UNL     1       7.245   5.250   0.000  1.00  0.00     0.024 A 
HETATM   11  C   UNL     1       8.544   3.000   0.000  1.00  0.00     0.037 A 
HETATM   12  C   UNL     1       8.544   4.500   0.000  1.00  0.00     0.006 A 
HETATM   13  C   UNL     1       8.544   7.500   0.000  1.00  0.00     0.135 A 
HETATM   14  N   UNL     1       9.843   2.250   0.000  1.00  0.00    -0.349 N 
HETATM   15  C   UNL     1       9.843   6.750   0.000  1.00  0.00     0.078 A 
HETATM   16  C   UNL     1       9.843   5.250   0.000  1.00  0.00    -0.035 A 
HETATM   17  C   UNL     1      11.142   4.500   0.000  1.00  0.00     0.047 A 
HETATM   18  C   UNL     1      11.142   3.000   0.000  1.00  0.00     0.105 A 
HETATM   19  O   UNL     1       2.049   2.250   0.000  1.00  0.00    -0.193 OA
HETATM   20  C   UNL     1       4.647   6.750   0.000  1.00  0.00     0.177 A 
HETATM   21  O   UNL     1       8.544   9.000   0.000  1.00  0.00    -0.192 OA
HETATM   22  C   UNL     1       9.843   0.750   0.000  1.00  0.00     0.125 C 
ENDROOT
BRANCH   1  23
HETATM   23  O   UNL     1       2.049   5.250   0.000  1.00  0.00    -0.327 OA
HETATM   24  C   UNL     1       0.750   4.500   0.000  1.00  0.00     0.181 C 
ENDBRANCH   1  23
TORSDOF 1
