REMARK  0 active torsions:
REMARK  status: ('A' for Active; 'I' for Inactive)
ROOT
HETATM    1  C   UNL     1      -1.924  -0.904   0.000  1.00  0.00     0.220 A 
HETATM    2  C   UNL     1      -2.674   0.395   0.000  1.00  0.00     0.059 A 
HETATM    3  C   UNL     1      -1.924   1.694   0.000  1.00  0.00     0.004 A 
HETATM    4  C   UNL     1      -0.424   1.694   0.000  1.00  0.00     0.002 A 
HETATM    5  C   UNL     1       0.326   0.395   0.000  1.00  0.00     0.033 A 
HETATM    6  C   UNL     1      -0.424  -0.904   0.000  1.00  0.00     0.225 A 
HETATM    7  C   UNL     1      -4.174   0.395   0.000  1.00  0.00     0.004 A 
HETATM    8  C   UNL     1      -4.924  -0.904   0.000  1.00  0.00     0.002 A 
HETATM    9  C   UNL     1      -6.424  -0.904   0.000  1.00  0.00     0.000 C 
HETATM   10  C   UNL     1      -4.174  -2.204   0.000  1.00  0.00     0.026 A 
HETATM   11  C   UNL     1      -2.674  -2.204   0.000  1.00  0.00     0.142 A 
HETATM   12  C   UNL     1      -1.793  -0.990   0.000  1.00  0.00     0.220 A 
HETATM   13  O   UNL     1      -2.256   0.437   0.000  1.00  0.00     0.000 OA
HETATM   14  N   UNL     1      -0.366  -1.454   0.000  1.00  0.00     0.035 N 
HETATM   15  C   UNL     1      -0.366  -2.954   0.000  1.00  0.00     0.298 A 
HETATM   16  S   UNL     1       0.848  -3.835   0.000  1.00  0.00    -0.032 SA
HETATM   17  N   UNL     1      -1.793  -3.417   0.000  1.00  0.00    -0.239 NA
ENDROOT
TORSDOF 0
