REMARK  7 active torsions:
REMARK  status: ('A' for Active; 'I' for Inactive)
REMARK    1  A    between atoms: C_9  and  C_10 
REMARK    2  A    between atoms: C_10  and  C_11 
REMARK    3  A    between atoms: C_11  and  P_14 
REMARK    4  A    between atoms: P_14  and  O_16 
REMARK    5  A    between atoms: P_14  and  O_17 
REMARK    6  A    between atoms: O_16  and  C_20 
REMARK    7  A    between atoms: O_17  and  C_18 
ROOT
HETATM    1  C   UNL     1       8.153  -1.395   0.000  1.00  0.00     0.117 C 
HETATM    2  C   UNL     1       9.157  -0.280   0.000  1.00  0.00     0.025 C 
HETATM    3  N   UNL     1      10.161   0.834   0.000  1.00  0.00    -0.096 N 
ENDROOT
BRANCH   1   4
HETATM    4  C   UNL     1       6.686  -1.083   0.000  1.00  0.00     0.067 C 
BRANCH   4   5
HETATM    5  C   UNL     1       6.223   0.343   0.000  1.00  0.00    -0.018 A 
HETATM    6  C   UNL     1       4.796   0.807   0.000  1.00  0.00    -0.015 A 
HETATM    7  C   UNL     1       4.796   2.307   0.000  1.00  0.00     0.050 A 
HETATM    8  C   UNL     1       3.497   0.057   0.000  1.00  0.00     0.027 A 
HETATM    9  C   UNL     1       3.497   3.057   0.000  1.00  0.00     0.045 A 
HETATM   10  N   UNL     1       6.223   2.770   0.000  1.00  0.00    -0.271 NA
HETATM   11  C   UNL     1       2.198   2.307   0.000  1.00  0.00     0.007 A 
HETATM   12  C   UNL     1       2.198   0.807   0.000  1.00  0.00     0.005 A 
HETATM   13  C   UNL     1       7.104   1.557   0.000  1.00  0.00     0.147 A 
ENDBRANCH   4   5
ENDBRANCH   1   4
BRANCH   1  14
HETATM   14  P   UNL     1       8.617  -2.822   0.000  1.00  0.00     0.371 P 
HETATM   15  O   UNL     1       7.190  -3.285   0.000  1.00  0.00    -0.253 OA
BRANCH  14  16
HETATM   16  O   UNL     1       9.080  -4.248   0.000  1.00  0.00    -0.291 OA
BRANCH  16  17
HETATM   17  C   UNL     1       8.077  -5.363   0.000  1.00  0.00     0.152 C 
HETATM   18  C   UNL     1       6.609  -5.051   0.000  1.00  0.00     0.035 C 
ENDBRANCH  16  17
ENDBRANCH  14  16
BRANCH  14  19
HETATM   19  O   UNL     1      10.043  -2.358   0.000  1.00  0.00    -0.291 OA
BRANCH  19  20
HETATM   20  C   UNL     1      11.158  -3.362   0.000  1.00  0.00     0.152 C 
HETATM   21  C   UNL     1      12.585  -2.898   0.000  1.00  0.00     0.035 C 
ENDBRANCH  19  20
ENDBRANCH  14  19
ENDBRANCH   1  14
TORSDOF 7
