REMARK  1 active torsions:
REMARK  status: ('A' for Active; 'I' for Inactive)
REMARK    1  A    between atoms: C_11  and  C_12 
ROOT
HETATM    1  O   UNL     1      -2.251  -4.335   0.000  1.00  0.00    -0.170 OA
HETATM    2  N   UNL     1      -2.402  -0.351   0.000  1.00  0.00    -0.239 NA
HETATM    3  N   UNL     1      -0.171  -2.877   0.000  1.00  0.00    -0.335 N 
HETATM    4  H   UNL     1       0.547  -4.194   0.000  1.00  0.00     0.168 HD
HETATM    5 CL   UNL     1       3.846   1.564   0.000  1.00  0.00    -0.091 Cl
HETATM    6  C   UNL     1      -1.085   0.367   0.000  1.00  0.00     0.090 A 
HETATM    7  C   UNL     1       0.298  -0.215   0.000  1.00  0.00     0.013 A 
HETATM    8  C   UNL     1       1.345   0.859   0.000  1.00  0.00     0.062 A 
HETATM    9  C   UNL     1       2.799   0.489   0.000  1.00  0.00     0.018 A 
HETATM   10  C   UNL     1       3.205  -0.954   0.000  1.00  0.00     0.040 A 
HETATM   11  C   UNL     1       0.705  -1.659   0.000  1.00  0.00     0.033 A 
HETATM   12  C   UNL     1       2.158  -2.029   0.000  1.00  0.00     0.049 A 
HETATM   13  C   UNL     1      -2.662  -1.828   0.000  1.00  0.00     0.144 A 
HETATM   14  C   UNL     1      -1.669  -2.952   0.000  1.00  0.00     0.210 A 
ENDROOT
BRANCH   6  15
HETATM   15  C   UNL     1      -1.160   1.865   0.000  1.00  0.00     0.048 A 
HETATM   16  N   UNL     1       0.008   2.807   0.000  1.00  0.00    -0.375 N 
HETATM   17  C   UNL     1      -0.527   4.208   0.000  1.00  0.00     0.098 A 
HETATM   18  H   UNL     1       1.456   2.415   0.000  1.00  0.00     0.160 HD
HETATM   19  C   UNL     1      -2.025   4.133   0.000  1.00  0.00     0.030 A 
HETATM   20  C   UNL     1      -2.416   2.685   0.000  1.00  0.00     0.047 A 
ENDBRANCH   6  15
TORSDOF 1
