REMARK  1 active torsions:
REMARK  status: ('A' for Active; 'I' for Inactive)
REMARK    1  A    between atoms: C_13  and  N_16 
ROOT
HETATM    1  C   UNL     1      -3.348  10.500   0.000  1.00  0.00     0.017 A 
HETATM    2  C   UNL     1      -4.647   9.750   0.000  1.00  0.00     0.074 A 
HETATM    3  C   UNL     1      -4.647   8.250   0.000  1.00  0.00     0.176 A 
HETATM    4  N   UNL     1      -3.348   7.500   0.000  1.00  0.00    -0.274 N 
HETATM    5  C   UNL     1      -2.049   8.250   0.000  1.00  0.00     0.170 A 
HETATM    6  C   UNL     1      -2.049   9.750   0.000  1.00  0.00     0.073 A 
HETATM    7  O   UNL     1      -5.946   7.500   0.000  1.00  0.00    -0.175 OA
HETATM    8  O   UNL     1      -0.750   7.500   0.000  1.00  0.00    -0.198 OA
HETATM    9  C   UNL     1      -3.348   6.000   0.000  1.00  0.00     0.061 A 
HETATM   10  C   UNL     1      -2.049   5.250   0.000  1.00  0.00     0.104 A 
HETATM   11  N   UNL     1      -0.750   6.000   0.000  1.00  0.00    -0.128 NA
HETATM   12  C   UNL     1      -2.049   3.750   0.000  1.00  0.00     0.095 A 
HETATM   13  C   UNL     1      -3.348   3.000   0.000  1.00  0.00     0.088 A 
HETATM   14  C   UNL     1      -4.647   3.750   0.000  1.00  0.00     0.052 A 
HETATM   15  C   UNL     1      -4.647   5.250   0.000  1.00  0.00     0.052 A 
ENDROOT
BRANCH  13  16
HETATM   16  N   UNL     1      -3.348   1.500   0.000  1.00  0.00    -0.122 N 
HETATM   17  O   UNL     1      -4.647   0.750   0.000  1.00  0.00    -0.532 OA
HETATM   18  O   UNL     1      -2.049   0.750   0.000  1.00  0.00    -0.532 OA
ENDBRANCH  13  16
TORSDOF 1
