REMARK  2 active torsions:
REMARK  status: ('A' for Active; 'I' for Inactive)
REMARK    1  A    between atoms: C_5  and  C_11 
REMARK    2  A    between atoms: C_11  and  C_12 
ROOT
HETATM    1  C   UNL     1      -3.316   7.757   0.000  1.00  0.00     0.101 A 
HETATM    2  C   UNL     1      -3.316   9.257   0.000  1.00  0.00     0.023 A 
HETATM    3  C   UNL     1      -2.017  10.007   0.000  1.00  0.00     0.093 A 
HETATM    4  C   UNL     1      -0.718   9.257   0.000  1.00  0.00     0.037 A 
HETATM    5  C   UNL     1       0.582  10.007   0.000  1.00  0.00    -0.035 A 
HETATM    6  C   UNL     1       1.881   9.257   0.000  1.00  0.00     0.087 A 
HETATM    7  C   UNL     1       1.881   7.757   0.000  1.00  0.00     0.278 A 
HETATM    8  O   UNL     1       0.582   7.007   0.000  1.00  0.00    -0.303 OA
HETATM    9  C   UNL     1      -0.718   7.757   0.000  1.00  0.00     0.102 A 
HETATM   10  C   UNL     1      -2.017   7.007   0.000  1.00  0.00     0.070 A 
HETATM   11  O   UNL     1       3.180   7.007   0.000  1.00  0.00    -0.189 OA
HETATM   12  O   UNL     1      -2.017  11.507   0.000  1.00  0.00    -0.336 OA
HETATM   13  C   UNL     1      -3.316  12.257   0.000  1.00  0.00     0.099 A 
HETATM   14  C   UNL     1      -4.615  11.507   0.000  1.00  0.00     0.032 A 
HETATM   15  C   UNL     1      -4.615  10.007   0.000  1.00  0.00     0.033 A 
HETATM   16  C   UNL     1      -4.615  13.007   0.000  1.00  0.00     0.030 A 
HETATM   17  C   UNL     1      -2.566  13.556   0.000  1.00  0.00     0.030 C 
HETATM   18  O   UNL     1      -4.615   7.007   0.000  1.00  0.00    -0.312 OA
HETATM   19  C   UNL     1      -4.615   5.507   0.000  1.00  0.00     0.076 A 
HETATM   20  C   UNL     1      -3.316   4.757   0.000  1.00  0.00     0.022 A 
HETATM   21  C   UNL     1      -2.017   5.507   0.000  1.00  0.00     0.132 A 
HETATM   22  C   UNL     1      -5.914   4.757   0.000  1.00  0.00     0.058 C 
HETATM   23  C   UNL     1      -3.316   3.257   0.000  1.00  0.00     0.035 C 
HETATM   24  O   UNL     1      -0.718   4.757   0.000  1.00  0.00    -0.190 OA
ENDROOT
BRANCH   5  25
HETATM   25  C   UNL     1       0.582  11.507   0.000  1.00  0.00     0.022 C 
BRANCH  25  26
HETATM   26  C   UNL     1       1.881  12.257   0.000  1.00  0.00     0.004 C 
HETATM   27  C   UNL     1       1.881  13.757   0.000  1.00  0.00     0.000 C 
ENDBRANCH  25  26
ENDBRANCH   5  25
TORSDOF 2
