REMARK  0 active torsions:
REMARK  status: ('A' for Active; 'I' for Inactive)
ROOT
HETATM    1  C   UNL     1       1.471   3.287   0.000  1.00  0.00     0.007 A 
HETATM    2  C   UNL     1       2.770   2.537   0.000  1.00  0.00     0.043 A 
HETATM    3  C   UNL     1       4.069   3.287   0.000  1.00  0.00     0.033 A 
HETATM    4  C   UNL     1       4.069   4.787   0.000  1.00  0.00    -0.013 A 
HETATM    5  C   UNL     1       2.770   5.537   0.000  1.00  0.00     0.027 A 
HETATM    6  C   UNL     1       1.471   4.787   0.000  1.00  0.00     0.005 A 
HETATM    7  N   UNL     1       5.496   2.823   0.000  1.00  0.00    -0.330 N 
HETATM    8  C   UNL     1       6.378   4.037   0.000  1.00  0.00     0.057 A 
HETATM    9  C   UNL     1       5.496   5.250   0.000  1.00  0.00    -0.009 A 
HETATM   10  C   UNL     1       7.869   4.194   0.000  1.00  0.00     0.034 A 
HETATM   11  C   UNL     1       8.479   5.564   0.000  1.00  0.00     0.003 A 
HETATM   12  C   UNL     1       7.598   6.777   0.000  1.00  0.00     0.033 A 
HETATM   13  C   UNL     1       6.106   6.621   0.000  1.00  0.00     0.032 A 
HETATM   14  C   UNL     1       8.751   2.980   0.000  1.00  0.00     0.110 A 
HETATM   15  O   UNL     1       8.141   1.610   0.000  1.00  0.00    -0.195 OA
HETATM   16  C   UNL     1      10.243   3.137   0.000  1.00  0.00     0.061 A 
HETATM   17  C   UNL     1      10.853   4.507   0.000  1.00  0.00     0.061 A 
HETATM   18  C   UNL     1       9.971   5.721   0.000  1.00  0.00     0.105 A 
HETATM   19  O   UNL     1      10.581   7.091   0.000  1.00  0.00    -0.195 OA
HETATM   20  C   UNL     1       5.959   1.397   0.000  1.00  0.00     0.130 C 
HETATM   21  C   UNL     1       0.172   5.537   0.000  1.00  0.00     0.000 C 
ENDROOT
TORSDOF 0
