REMARK  6 active torsions:
REMARK  status: ('A' for Active; 'I' for Inactive)
REMARK    1  A    between atoms: C_5  and  C_22 
REMARK    2  A    between atoms: C_9  and  C_21 
REMARK    3  A    between atoms: C_12  and  C_20 
REMARK    4  A    between atoms: C_14  and  C_19 
REMARK    5  A    between atoms: C_19  and  C_20 
REMARK    6  A    between atoms: C_21  and  C_22 
ROOT
HETATM    1  N   UNL     1       8.648   2.859   0.000  1.00  0.00    -0.157 NA
HETATM    2  N   UNL     1       7.348   3.609   0.000  1.00  0.00    -0.157 NA
HETATM    3  C   UNL     1       7.348   5.109   0.000  1.00  0.00     0.059 A 
HETATM    4  C   UNL     1       8.648   5.859   0.000  1.00  0.00     0.049 A 
HETATM    5  C   UNL     1       9.947   5.109   0.000  1.00  0.00     0.049 A 
HETATM    6  C   UNL     1       9.947   3.609   0.000  1.00  0.00     0.059 A 
ENDROOT
BRANCH   3   7
HETATM    7  C   UNL     1       6.050   5.859   0.000  1.00  0.00     0.043 C 
BRANCH   7   8
HETATM    8  C   UNL     1       6.050   7.359   0.000  1.00  0.00     0.006 C 
BRANCH   8   9
HETATM    9  C   UNL     1       4.750   8.109   0.000  1.00  0.00     0.000 A 
HETATM   10  C   UNL     1       3.451   7.359   0.000  1.00  0.00     0.000 A 
HETATM   11  C   UNL     1       2.152   8.109   0.000  1.00  0.00     0.000 A 
HETATM   12  C   UNL     1       2.152   9.609   0.000  1.00  0.00     0.000 A 
HETATM   13  C   UNL     1       3.451  10.359   0.000  1.00  0.00     0.000 A 
HETATM   14  C   UNL     1       4.750   9.609   0.000  1.00  0.00     0.000 A 
ENDBRANCH   8   9
ENDBRANCH   7   8
ENDBRANCH   3   7
BRANCH   6  15
HETATM   15  C   UNL     1      11.246   2.859   0.000  1.00  0.00     0.043 C 
BRANCH  15  16
HETATM   16  C   UNL     1      11.246   1.359   0.000  1.00  0.00     0.006 C 
BRANCH  16  17
HETATM   17  C   UNL     1      12.545   0.609   0.000  1.00  0.00     0.000 A 
HETATM   18  C   UNL     1      12.545  -0.891   0.000  1.00  0.00     0.000 A 
HETATM   19  C   UNL     1      13.844  -1.641   0.000  1.00  0.00     0.000 A 
HETATM   20  C   UNL     1      15.143  -0.891   0.000  1.00  0.00     0.000 A 
HETATM   21  C   UNL     1      15.143   0.609   0.000  1.00  0.00     0.000 A 
HETATM   22  C   UNL     1      13.844   1.359   0.000  1.00  0.00     0.000 A 
ENDBRANCH  16  17
ENDBRANCH  15  16
ENDBRANCH   6  15
TORSDOF 6
