REMARK  1 active torsions:
REMARK  status: ('A' for Active; 'I' for Inactive)
REMARK    1  A    between atoms: C_6  and  C_8 
ROOT
HETATM    1  H   UNL     1       3.299   4.214   0.000  1.00  0.00     0.189 HD
HETATM    2  N   UNL     1       4.144   2.974   0.000  1.00  0.00    -0.272 N 
HETATM    3  O   UNL     1       2.921  -0.821   0.000  1.00  0.00    -0.189 OA
HETATM    4  N   UNL     1       5.627   3.198   0.000  1.00  0.00    -0.171 NA
HETATM    5  C   UNL     1       6.727   2.178   0.000  1.00  0.00     0.119 A 
HETATM    6  C   UNL     1       6.614   0.682   0.000  1.00  0.00     0.011 A 
HETATM    7  C   UNL     1       5.375  -0.163   0.000  1.00  0.00     0.006 A 
HETATM    8  C   UNL     1       3.942   0.279   0.000  1.00  0.00     0.145 A 
HETATM    9  C   UNL     1       3.394   1.675   0.000  1.00  0.00     0.118 A 
HETATM   10  C   UNL     1       5.599  -1.647   0.000  1.00  0.00     0.033 C 
ENDROOT
BRANCH   6  11
HETATM   11  C   UNL     1       7.913  -0.068   0.000  1.00  0.00    -0.043 A 
HETATM   12  C   UNL     1       7.913  -1.568   0.000  1.00  0.00     0.022 A 
HETATM   13  C   UNL     1       9.213  -2.318   0.000  1.00  0.00     0.004 A 
HETATM   14  C   UNL     1      10.512  -1.568   0.000  1.00  0.00     0.001 A 
HETATM   15  C   UNL     1      10.512  -0.068   0.000  1.00  0.00     0.004 A 
HETATM   16  C   UNL     1       9.213   0.682   0.000  1.00  0.00     0.022 A 
ENDBRANCH   6  11
TORSDOF 1
