REMARK  1 active torsions:
REMARK  status: ('A' for Active; 'I' for Inactive)
REMARK    1  A    between atoms: C_4  and  N_6 
ROOT
HETATM    1  N   UNL     1       2.923   4.054   0.000  1.00  0.00    -0.311 N 
HETATM    2  C   UNL     1       2.923   5.554   0.000  1.00  0.00     0.129 A 
HETATM    3  C   UNL     1       4.222   6.304   0.000  1.00  0.00     0.122 A 
HETATM    4  N   UNL     1       5.521   5.554   0.000  1.00  0.00    -0.364 N 
HETATM    5  C   UNL     1       5.521   4.054   0.000  1.00  0.00     0.122 A 
HETATM    6  C   UNL     1       4.222   3.304   0.000  1.00  0.00     0.129 A 
HETATM    7  C   UNL     1       6.820   6.304   0.000  1.00  0.00     0.121 C 
ENDROOT
BRANCH   1   8
HETATM    8  C   UNL     1       1.624   3.304   0.000  1.00  0.00     0.243 A 
HETATM    9  N   UNL     1       1.467   1.812   0.000  1.00  0.00    -0.231 NA
HETATM   10  C   UNL     1       0.000   1.500   0.000  1.00  0.00     0.162 A 
HETATM   11  C   UNL     1      -0.750   2.799   0.000  1.00  0.00     0.178 A 
HETATM   12  O   UNL     1       0.254   3.914   0.000  1.00  0.00    -0.300 OA
ENDBRANCH   1   8
TORSDOF 1
