REMARK  3 active torsions:
REMARK  status: ('A' for Active; 'I' for Inactive)
REMARK    1  A    between atoms: C_8  and  C_18 
REMARK    2  A    between atoms: C_21  and  O_24 
REMARK    3  A    between atoms: C_22  and  O_26 
ROOT
HETATM    1  C   UNL     1       3.638  -1.553   0.000  1.00  0.00     0.097 A 
HETATM    2  C   UNL     1       3.638  -0.053   0.000  1.00  0.00     0.099 A 
HETATM    3  C   UNL     1       4.937   0.697   0.000  1.00  0.00     0.104 A 
HETATM    4  C   UNL     1       6.236  -0.053   0.000  1.00  0.00     0.080 A 
HETATM    5  O   UNL     1       7.535   0.697   0.000  1.00  0.00    -0.313 OA
HETATM    6  C   UNL     1       8.834  -0.053   0.000  1.00  0.00     0.112 A 
HETATM    7  C   UNL     1       8.834  -1.553   0.000  1.00  0.00     0.069 A 
HETATM    8  C   UNL     1       7.535  -2.303   0.000  1.00  0.00    -0.004 A 
HETATM    9  C   UNL     1       6.236  -1.553   0.000  1.00  0.00     0.003 A 
HETATM   10  C   UNL     1       4.937  -2.303   0.000  1.00  0.00     0.081 A 
HETATM   11  O   UNL     1       2.211   0.411   0.000  1.00  0.00    -0.304 OA
HETATM   12  C   UNL     1       1.330  -0.803   0.000  1.00  0.00     0.303 A 
HETATM   13  O   UNL     1       2.211  -2.016   0.000  1.00  0.00    -0.304 OA
HETATM   14  C   UNL     1      10.261   0.411   0.000  1.00  0.00     0.202 A 
HETATM   15  O   UNL     1      11.142  -0.803   0.000  1.00  0.00    -0.302 OA
HETATM   16  C   UNL     1      10.261  -2.016   0.000  1.00  0.00     0.230 A 
HETATM   17  O   UNL     1      10.724  -3.443   0.000  1.00  0.00    -0.163 OA
ENDROOT
BRANCH   8  18
HETATM   18  C   UNL     1       7.535  -3.803   0.000  1.00  0.00    -0.037 A 
HETATM   19  C   UNL     1       6.236  -4.553   0.000  1.00  0.00     0.029 A 
HETATM   20  C   UNL     1       6.236  -6.053   0.000  1.00  0.00     0.057 A 
HETATM   21  C   UNL     1       7.535  -6.803   0.000  1.00  0.00     0.090 A 
HETATM   22  C   UNL     1       8.834  -6.053   0.000  1.00  0.00     0.094 A 
HETATM   23  C   UNL     1       8.834  -4.553   0.000  1.00  0.00     0.075 A 
BRANCH  21  24
HETATM   24  O   UNL     1       7.535  -8.303   0.000  1.00  0.00    -0.331 OA
HETATM   25  C   UNL     1       8.834  -9.053   0.000  1.00  0.00     0.181 C 
ENDBRANCH  21  24
BRANCH  22  26
HETATM   26  O   UNL     1      10.133  -6.803   0.000  1.00  0.00    -0.330 OA
HETATM   27  C   UNL     1      11.432  -6.053   0.000  1.00  0.00     0.181 C 
ENDBRANCH  22  26
ENDBRANCH   8  18
TORSDOF 3
