REMARK  5 active torsions:
REMARK  status: ('A' for Active; 'I' for Inactive)
REMARK    1  A    between atoms: C_6  and  C_11 
REMARK    2  A    between atoms: C_8  and  S_9 
REMARK    3  A    between atoms: C_11  and  C_12 
REMARK    4  A    between atoms: C_12  and  O_13 
REMARK    5  A    between atoms: O_13  and  C_14 
ROOT
HETATM    1  N   UNL     1      -9.843  -3.000   0.000  1.00  0.00    -0.197 NA
HETATM    2  N   UNL     1      -8.544  -5.250   0.000  1.00  0.00    -0.313 N 
HETATM    3  O   UNL     1      -8.544  -0.750   0.000  1.00  0.00    -0.169 OA
HETATM    4  H   UNL     1      -8.544  -6.750   0.000  1.00  0.00     0.170 HD
HETATM    5  C   UNL     1      -8.544  -2.250   0.000  1.00  0.00     0.214 A 
HETATM    6  C   UNL     1      -7.245  -3.000   0.000  1.00  0.00     0.066 A 
HETATM    7  C   UNL     1      -7.245  -4.500   0.000  1.00  0.00     0.192 A 
HETATM    8  C   UNL     1      -9.843  -4.500   0.000  1.00  0.00     0.172 A 
HETATM    9  O   UNL     1      -5.946  -5.250   0.000  1.00  0.00    -0.171 OA
ENDROOT
BRANCH   6  10
HETATM   10  C   UNL     1      -5.946  -2.250   0.000  1.00  0.00     0.066 C 
BRANCH  10  11
HETATM   11  C   UNL     1      -4.647  -3.000   0.000  1.00  0.00     0.147 C 
BRANCH  11  12
HETATM   12  O   UNL     1      -3.348  -2.250   0.000  1.00  0.00    -0.354 OA
BRANCH  12  13
HETATM   13  C   UNL     1      -2.049  -3.000   0.000  1.00  0.00     0.142 C 
HETATM   14  C   UNL     1      -0.750  -2.250   0.000  1.00  0.00     0.035 C 
ENDBRANCH  12  13
ENDBRANCH  11  12
ENDBRANCH  10  11
ENDBRANCH   6  10
BRANCH   8  15
HETATM   15  S   UNL     1     -11.142  -5.250   0.000  1.00  0.00    -0.076 SA
HETATM   16  C   UNL     1     -12.441  -4.500   0.000  1.00  0.00     0.077 C 
ENDBRANCH   8  15
TORSDOF 5
