REMARK  0 active torsions:
REMARK  status: ('A' for Active; 'I' for Inactive)
ROOT
HETATM    1  C   UNL     1       0.750   3.000   0.000  1.00  0.00     0.054 A 
HETATM    2  C   UNL     1       0.750   1.500   0.000  1.00  0.00     0.011 A 
HETATM    3  C   UNL     1       2.049   0.750   0.000  1.00  0.00     0.022 A 
HETATM    4  C   UNL     1       3.348   1.500   0.000  1.00  0.00    -0.042 A 
HETATM    5  C   UNL     1       3.348   3.000   0.000  1.00  0.00    -0.004 A 
HETATM    6  C   UNL     1       2.049   3.750   0.000  1.00  0.00     0.104 A 
HETATM    7  C   UNL     1       4.647   0.750   0.000  1.00  0.00     0.043 A 
HETATM    8  C   UNL     1       5.946   1.500   0.000  1.00  0.00    -0.048 A 
HETATM    9  C   UNL     1       5.946   3.000   0.000  1.00  0.00    -0.047 A 
HETATM   10  C   UNL     1       4.647   3.750   0.000  1.00  0.00     0.049 A 
HETATM   11  C   UNL     1       7.373   1.036   0.000  1.00  0.00     0.023 A 
HETATM   12  C   UNL     1       7.373   3.463   0.000  1.00  0.00     0.023 A 
HETATM   13  C   UNL     1       8.254   2.250   0.000  1.00  0.00     0.015 A 
HETATM   14  C   UNL     1       9.136   1.036   0.000  1.00  0.00     0.023 A 
HETATM   15  C   UNL     1      10.563   1.500   0.000  1.00  0.00    -0.048 A 
HETATM   16  C   UNL     1      10.563   3.000   0.000  1.00  0.00    -0.047 A 
HETATM   17  C   UNL     1       9.136   3.463   0.000  1.00  0.00     0.023 A 
HETATM   18  C   UNL     1      11.862   0.750   0.000  1.00  0.00     0.043 A 
HETATM   19  C   UNL     1      13.161   1.500   0.000  1.00  0.00    -0.042 A 
HETATM   20  C   UNL     1      13.161   3.000   0.000  1.00  0.00    -0.004 A 
HETATM   21  C   UNL     1      11.862   3.750   0.000  1.00  0.00     0.049 A 
HETATM   22  C   UNL     1      14.460   0.750   0.000  1.00  0.00     0.022 A 
HETATM   23  C   UNL     1      15.759   1.500   0.000  1.00  0.00     0.011 A 
HETATM   24  C   UNL     1      15.759   3.000   0.000  1.00  0.00     0.054 A 
HETATM   25  C   UNL     1      14.460   3.750   0.000  1.00  0.00     0.104 A 
HETATM   26  O   UNL     1       2.049   5.250   0.000  1.00  0.00    -0.195 OA
HETATM   27  O   UNL     1      14.460   5.250   0.000  1.00  0.00    -0.195 OA
ENDROOT
TORSDOF 0
