REMARK  5 active torsions:
REMARK  status: ('A' for Active; 'I' for Inactive)
REMARK    1  A    between atoms: C_1  and  N_4 
REMARK    2  A    between atoms: N_4  and  C_5 
REMARK    3  A    between atoms: C_5  and  N_6 
REMARK    4  A    between atoms: C_5  and  O_7 
REMARK    5  A    between atoms: N_6  and  C_9 
ROOT
HETATM    1  C   UNL     1       3.750   3.348   0.000  1.00  0.00     0.269 C 
ENDROOT
BRANCH   1   2
HETATM    2  N   UNL     1       3.000   4.647   0.000  1.00  0.00    -0.214 NA
BRANCH   2   3
HETATM    3  C   UNL     1       1.500   4.647   0.000  1.00  0.00     0.041 C 
HETATM    4  C   UNL     1       0.750   5.946   0.000  1.00  0.00     0.047 C 
HETATM    5  C   UNL     1       0.750   3.348   0.000  1.00  0.00     0.047 C 
ENDBRANCH   2   3
ENDBRANCH   1   2
BRANCH   1   6
HETATM    6  N   UNL     1       5.250   3.348   0.000  1.00  0.00    -0.214 NA
BRANCH   6   7
HETATM    7  C   UNL     1       6.000   4.647   0.000  1.00  0.00     0.041 C 
HETATM    8  C   UNL     1       5.250   5.946   0.000  1.00  0.00     0.047 C 
HETATM    9  C   UNL     1       7.500   4.647   0.000  1.00  0.00     0.047 C 
ENDBRANCH   6   7
ENDBRANCH   1   6
BRANCH   1  10
HETATM   10  O   UNL     1       3.000   2.049   0.000  1.00  0.00    -0.297 OA
HETATM   11  C   UNL     1       3.750   0.750   0.000  1.00  0.00     0.185 C 
ENDBRANCH   1  10
TORSDOF 5
