REMARK  4 active torsions:
REMARK  status: ('A' for Active; 'I' for Inactive)
REMARK    1  A    between atoms: C_2  and  C_21 
REMARK    2  A    between atoms: C_5  and  C_6 
REMARK    3  A    between atoms: C_6  and  C_7 
REMARK    4  A    between atoms: C_7  and  P_8 
ROOT
HETATM    1  C   UNL     1      -5.835  -3.576   0.000  1.00  0.00     0.126 C 
HETATM    2  C   UNL     1      -6.717  -4.790   0.000  1.00  0.00     0.028 C 
HETATM    3  N   UNL     1      -7.599  -6.003   0.000  1.00  0.00    -0.095 N 
ENDROOT
BRANCH   1   4
HETATM    4  C   UNL     1      -6.446  -2.206   0.000  1.00  0.00     0.063 C 
BRANCH   4   5
HETATM    5  C   UNL     1      -7.937  -2.049   0.000  1.00  0.00     0.067 A 
HETATM    6  O   UNL     1      -8.941  -3.164   0.000  1.00  0.00    -0.317 OA
HETATM    7  C   UNL     1     -10.311  -2.554   0.000  1.00  0.00     0.075 A 
HETATM    8  C   UNL     1     -10.155  -1.062   0.000  1.00  0.00     0.058 A 
HETATM    9  C   UNL     1      -8.687  -0.750   0.000  1.00  0.00     0.057 A 
BRANCH   7  10
HETATM   10  C   UNL     1     -11.610  -3.304   0.000  1.00  0.00     0.021 A 
HETATM   11  C   UNL     1     -11.610  -4.804   0.000  1.00  0.00     0.122 A 
HETATM   12  C   UNL     1     -12.909  -5.554   0.000  1.00  0.00     0.108 A 
HETATM   13  F   UNL     1     -10.311  -5.554   0.000  1.00  0.00    -0.209 F 
HETATM   14  C   UNL     1     -14.209  -4.804   0.000  1.00  0.00     0.102 A 
HETATM   15  C   UNL     1     -14.209  -3.304   0.000  1.00  0.00     0.057 A 
HETATM   16  F   UNL     1     -15.508  -5.554   0.000  1.00  0.00    -0.213 F 
HETATM   17  C   UNL     1     -12.909  -2.554   0.000  1.00  0.00     0.037 A 
ENDBRANCH   7  10
ENDBRANCH   4   5
ENDBRANCH   1   4
BRANCH   1  18
HETATM   18  P   UNL     1      -4.344  -3.733   0.000  1.00  0.00     0.381 P 
HETATM   19  O   UNL     1      -4.187  -2.241   0.000  1.00  0.00    -0.252 OA
HETATM   20  O   UNL     1      -2.852  -3.890   0.000  1.00  0.00    -0.268 OA
HETATM   21  C   UNL     1      -2.242  -5.260   0.000  1.00  0.00     0.100 A 
HETATM   22  C   UNL     1      -0.750  -5.417   0.000  1.00  0.00     0.060 C 
HETATM   23  C   UNL     1      -3.287  -6.106   0.000  1.00  0.00     0.100 A 
HETATM   24  O   UNL     1      -4.500  -5.225   0.000  1.00  0.00    -0.268 OA
HETATM   25  C   UNL     1      -3.444  -7.598   0.000  1.00  0.00     0.060 C 
ENDBRANCH   1  18
TORSDOF 4
