REMARK  4 active torsions:
REMARK  status: ('A' for Active; 'I' for Inactive)
REMARK    1  A    between atoms: C_2  and  C_18 
REMARK    2  A    between atoms: C_9  and  O_17 
REMARK    3  A    between atoms: C_11  and  C_13 
REMARK    4  A    between atoms: O_17  and  C_18 
ROOT
HETATM    1  C   UNL     1       6.971   0.074   0.000  1.00  0.00     0.030 A 
HETATM    2  C   UNL     1       5.672   0.824   0.000  1.00  0.00     0.003 A 
HETATM    3  C   UNL     1       6.971  -1.426   0.000  1.00  0.00     0.123 A 
HETATM    4  C   UNL     1       5.672  -2.176   0.000  1.00  0.00     0.030 A 
HETATM    5  C   UNL     1       4.373   0.074   0.000  1.00  0.00     0.000 A 
HETATM    6  C   UNL     1       4.373  -1.426   0.000  1.00  0.00     0.003 A 
ENDROOT
BRANCH   3   7
HETATM    7  O   UNL     1       8.270  -2.176   0.000  1.00  0.00    -0.312 OA
BRANCH   7   8
HETATM    8  C   UNL     1       9.569  -1.426   0.000  1.00  0.00     0.220 C 
HETATM    9  O   UNL     1       9.569   0.074   0.000  1.00  0.00    -0.164 OA
BRANCH   8  10
HETATM   10  C   UNL     1      10.868  -2.176   0.000  1.00  0.00     0.005 A 
HETATM   11  C   UNL     1      12.167  -1.426   0.000  1.00  0.00     0.026 A 
HETATM   12  C   UNL     1      13.466  -2.176   0.000  1.00  0.00     0.004 A 
HETATM   13  C   UNL     1      13.466  -3.676   0.000  1.00  0.00     0.001 A 
HETATM   14  C   UNL     1      12.167  -4.426   0.000  1.00  0.00     0.004 A 
HETATM   15  C   UNL     1      10.868  -3.676   0.000  1.00  0.00     0.026 A 
ENDBRANCH   8  10
ENDBRANCH   7   8
ENDBRANCH   3   7
BRANCH   5  16
HETATM   16  C   UNL     1       3.074   0.824   0.000  1.00  0.00     0.000 C 
HETATM   17  C   UNL     1       3.824   2.123   0.000  1.00  0.00     0.000 C 
HETATM   18  C   UNL     1       1.774   1.574   0.000  1.00  0.00     0.000 C 
HETATM   19  C   UNL     1       2.324  -0.475   0.000  1.00  0.00     0.000 C 
ENDBRANCH   5  16
TORSDOF 4
