REMARK  0 active torsions:
REMARK  status: ('A' for Active; 'I' for Inactive)
ROOT
HETATM    1  C   UNL     1      -0.119  -6.668   0.000  1.00  0.00     0.293 A 
HETATM    2  C   UNL     1       1.309  -6.208   0.000  1.00  0.00     0.076 A 
HETATM    3  C   UNL     1       1.313  -4.708   0.000  1.00  0.00     0.152 A 
HETATM    4  C   UNL     1      -0.113  -4.241   0.000  1.00  0.00     0.313 A 
HETATM    5  C   UNL     1       2.735  -6.675   0.000  1.00  0.00     0.113 A 
HETATM    6  N   UNL     1       3.619  -5.464   0.000  1.00  0.00    -0.131 NA
HETATM    7  N   UNL     1       2.741  -4.248   0.000  1.00  0.00    -0.130 NA
HETATM    8  C   UNL     1       1.317  -3.208   0.000  1.00  0.00     0.355 A 
HETATM    9  N   UNL     1       1.320  -1.708   0.000  1.00  0.00     0.620 N 
HETATM   10  N   UNL     1      -0.997  -5.452   0.000  1.00  0.00     0.341 N 
ENDROOT
TORSDOF 0
