REMARK  8 active torsions:
REMARK  status: ('A' for Active; 'I' for Inactive)
REMARK    1  A    between atoms: C_9  and  C_15 
REMARK    2  A    between atoms: N_12  and  S_19 
REMARK    3  A    between atoms: C_13  and  C_29 
REMARK    4  A    between atoms: C_15  and  O_17 
REMARK    5  A    between atoms: O_17  and  C_18 
REMARK    6  A    between atoms: C_18  and  C_33 
REMARK    7  A    between atoms: S_19  and  C_22 
REMARK    8  A    between atoms: C_29  and  O_31 
ROOT
HETATM    1  C   UNL     1      -7.810  -7.510   0.000  1.00  0.00     0.098 A 
HETATM    2  C   UNL     1      -7.498  -8.977   0.000  1.00  0.00     0.174 A 
HETATM    3  C   UNL     1      -8.613  -9.981   0.000  1.00  0.00     0.175 A 
HETATM    4  C   UNL     1     -10.040  -9.517   0.000  1.00  0.00     0.103 A 
HETATM    5  C   UNL     1     -10.351  -8.050   0.000  1.00  0.00     0.019 A 
HETATM    6  C   UNL     1      -9.237  -7.046   0.000  1.00  0.00     0.004 A 
HETATM    7  N   UNL     1     -11.339 -10.267   0.000  1.00  0.00    -0.264 NA
HETATM    8  C   UNL     1     -12.453  -9.264   0.000  1.00  0.00     0.156 A 
HETATM    9  C   UNL     1     -11.843  -7.893   0.000  1.00  0.00     0.052 A 
HETATM   10  O   UNL     1      -6.072  -9.441   0.000  1.00  0.00    -0.186 OA
HETATM   11  O   UNL     1      -8.301 -11.448   0.000  1.00  0.00    -0.186 OA
HETATM   12  N   UNL     1      -6.928  -6.296   0.000  1.00  0.00    -0.234 N 
HETATM   13  C   UNL     1      -7.810  -5.083   0.000  1.00  0.00     0.105 A 
HETATM   14  C   UNL     1      -9.237  -5.546   0.000  1.00  0.00     0.077 A 
ENDROOT
BRANCH   9  15
HETATM   15  C   UNL     1     -12.593  -6.594   0.000  1.00  0.00     0.226 C 
HETATM   16  O   UNL     1     -11.843  -5.295   0.000  1.00  0.00    -0.164 OA
BRANCH  15  17
HETATM   17  O   UNL     1     -14.093  -6.594   0.000  1.00  0.00    -0.309 OA
BRANCH  17  18
HETATM   18  C   UNL     1     -14.843  -7.893   0.000  1.00  0.00     0.151 C 
BRANCH  18  19
HETATM   19  C   UNL     1     -16.343  -7.893   0.000  1.00  0.00     0.030 A 
HETATM   20  C   UNL     1     -17.093  -9.192   0.000  1.00  0.00     0.003 A 
HETATM   21  C   UNL     1     -18.593  -9.192   0.000  1.00  0.00     0.000 A 
HETATM   22  C   UNL     1     -19.343  -7.893   0.000  1.00  0.00     0.000 A 
HETATM   23  C   UNL     1     -18.593  -6.594   0.000  1.00  0.00     0.000 A 
HETATM   24  C   UNL     1     -17.093  -6.594   0.000  1.00  0.00     0.003 A 
ENDBRANCH  18  19
ENDBRANCH  17  18
ENDBRANCH  15  17
ENDBRANCH   9  15
BRANCH  12  25
HETATM   25  S   UNL     1      -5.428  -6.296   0.000  1.00  0.00     0.249 S 
HETATM   26  O   UNL     1      -5.428  -7.796   0.000  1.00  0.00    -0.204 OA
HETATM   27  O   UNL     1      -5.428  -4.796   0.000  1.00  0.00    -0.204 OA
BRANCH  25  28
HETATM   28  C   UNL     1      -3.928  -6.296   0.000  1.00  0.00     0.128 A 
HETATM   29  C   UNL     1      -3.178  -7.596   0.000  1.00  0.00     0.018 A 
HETATM   30  C   UNL     1      -1.678  -7.596   0.000  1.00  0.00     0.001 A 
HETATM   31  C   UNL     1      -0.928  -6.296   0.000  1.00  0.00     0.000 A 
HETATM   32  C   UNL     1      -1.678  -4.997   0.000  1.00  0.00     0.001 A 
HETATM   33  C   UNL     1       0.572  -6.296   0.000  1.00  0.00     0.000 C 
HETATM   34  C   UNL     1      -3.178  -4.997   0.000  1.00  0.00     0.018 A 
ENDBRANCH  25  28
ENDBRANCH  12  25
BRANCH  13  35
HETATM   35  C   UNL     1      -7.347  -3.656   0.000  1.00  0.00     0.242 C 
HETATM   36  O   UNL     1      -5.879  -3.345   0.000  1.00  0.00    -0.162 OA
BRANCH  35  37
HETATM   37  O   UNL     1      -8.350  -2.542   0.000  1.00  0.00    -0.305 OA
HETATM   38  C   UNL     1      -9.818  -2.853   0.000  1.00  0.00     0.184 C 
ENDBRANCH  35  37
ENDBRANCH  13  35
TORSDOF 8
