REMARK  3 active torsions:
REMARK  status: ('A' for Active; 'I' for Inactive)
REMARK    1  A    between atoms: C_8  and  N_11 
REMARK    2  A    between atoms: N_11  and  N_12 
REMARK    3  A    between atoms: N_12  and  C_13 
ROOT
HETATM    1  C   UNL     1       1.674   1.399   0.000  1.00  0.00     0.005 A 
HETATM    2  C   UNL     1       1.674  -0.101   0.000  1.00  0.00     0.007 A 
HETATM    3  C   UNL     1       2.973  -0.851   0.000  1.00  0.00     0.045 A 
HETATM    4  C   UNL     1       4.272  -0.101   0.000  1.00  0.00     0.053 A 
HETATM    5  C   UNL     1       4.272   1.399   0.000  1.00  0.00    -0.030 A 
HETATM    6  C   UNL     1       2.973   2.150   0.000  1.00  0.00     0.023 A 
HETATM    7  N   UNL     1       5.571  -0.851   0.000  1.00  0.00    -0.234 NA
HETATM    8  C   UNL     1       6.870  -0.101   0.000  1.00  0.00     0.161 A 
HETATM    9  C   UNL     1       6.870   1.399   0.000  1.00  0.00     0.072 A 
HETATM   10  C   UNL     1       5.571   2.150   0.000  1.00  0.00     0.031 A 
ENDROOT
BRANCH   8  11
HETATM   11  N   UNL     1       8.169  -0.851   0.000  1.00  0.00    -0.134 NA
BRANCH  11  12
HETATM   12  N   UNL     1       9.468  -0.101   0.000  1.00  0.00    -0.156 NA
BRANCH  12  13
HETATM   13  C   UNL     1      10.767  -0.851   0.000  1.00  0.00     0.059 A 
HETATM   14  C   UNL     1      10.767  -2.350   0.000  1.00  0.00     0.048 A 
HETATM   15  C   UNL     1      12.066  -3.100   0.000  1.00  0.00     0.035 A 
HETATM   16  C   UNL     1      13.365  -2.350   0.000  1.00  0.00    -0.009 A 
HETATM   17  C   UNL     1      13.365  -0.851   0.000  1.00  0.00     0.035 A 
HETATM   18 BR   UNL     1      14.664  -3.100   0.000  1.00  0.00    -0.058 Br
HETATM   19  C   UNL     1      12.066  -0.101   0.000  1.00  0.00     0.048 A 
ENDBRANCH  12  13
ENDBRANCH  11  12
ENDBRANCH   8  11
TORSDOF 3
