REMARK  4 active torsions:
REMARK  status: ('A' for Active; 'I' for Inactive)
REMARK    1  A    between atoms: C_9  and  N_11 
REMARK    2  A    between atoms: N_11  and  N_12 
REMARK    3  A    between atoms: N_12  and  C_13 
REMARK    4  A    between atoms: C_16  and  N_20 
ROOT
HETATM    1  N   UNL     1       4.172   7.774   0.000  1.00  0.00    -0.157 NA
ENDROOT
BRANCH   1   2
HETATM    2  C   UNL     1       2.873   7.024   0.000  1.00  0.00     0.063 A 
HETATM    3  C   UNL     1       2.873   5.524   0.000  1.00  0.00     0.050 A 
HETATM    4  C   UNL     1       1.574   4.774   0.000  1.00  0.00     0.051 A 
HETATM    5  C   UNL     1       0.275   5.524   0.000  1.00  0.00     0.047 A 
HETATM    6  N   UNL     1      -1.024   4.774   0.000  1.00  0.00    -0.276 NA
HETATM    7  C   UNL     1       0.275   7.024   0.000  1.00  0.00    -0.025 A 
HETATM    8  C   UNL     1      -2.324   5.524   0.000  1.00  0.00     0.126 A 
HETATM    9  C   UNL     1      -2.324   7.024   0.000  1.00  0.00     0.031 A 
HETATM   10  C   UNL     1      -1.024   7.774   0.000  1.00  0.00     0.026 A 
HETATM   11  C   UNL     1       1.574   7.774   0.000  1.00  0.00     0.066 A 
ENDBRANCH   1   2
BRANCH   1  12
HETATM   12  N   UNL     1       5.471   7.024   0.000  1.00  0.00    -0.154 NA
BRANCH  12  13
HETATM   13  C   UNL     1       6.770   7.774   0.000  1.00  0.00     0.073 A 
HETATM   14  C   UNL     1       8.069   7.024   0.000  1.00  0.00    -0.023 A 
HETATM   15  C   UNL     1       9.368   7.774   0.000  1.00  0.00     0.062 A 
HETATM   16  C   UNL     1       8.069   5.524   0.000  1.00  0.00     0.028 C 
HETATM   17  C   UNL     1       9.368   9.274   0.000  1.00  0.00     0.015 A 
HETATM   18  C   UNL     1       8.069  10.024   0.000  1.00  0.00     0.046 A 
HETATM   19  C   UNL     1       6.770   9.274   0.000  1.00  0.00     0.053 A 
BRANCH  17  20
HETATM   20  N   UNL     1      10.667  10.024   0.000  1.00  0.00    -0.351 N 
HETATM   21  C   UNL     1      11.966   9.274   0.000  1.00  0.00     0.125 C 
HETATM   22  C   UNL     1      10.667  11.524   0.000  1.00  0.00     0.125 C 
ENDBRANCH  17  20
ENDBRANCH  12  13
ENDBRANCH   1  12
TORSDOF 4
