REMARK  1 active torsions:
REMARK  status: ('A' for Active; 'I' for Inactive)
REMARK    1  A    between atoms: C_15  and  N_18 
ROOT
HETATM    1  C   UNL     1      -7.024   2.324   0.000  1.00  0.00     0.032 A 
HETATM    2  C   UNL     1      -7.774   1.024   0.000  1.00  0.00    -0.003 A 
HETATM    3  C   UNL     1      -9.274   1.024   0.000  1.00  0.00     0.120 A 
HETATM    4  C   UNL     1     -10.024   2.324   0.000  1.00  0.00     0.105 A 
HETATM    5  C   UNL     1      -9.274   3.623   0.000  1.00  0.00    -0.018 A 
HETATM    6  C   UNL     1      -7.774   3.623   0.000  1.00  0.00     0.029 A 
HETATM    7  O   UNL     1     -11.492   2.635   0.000  1.00  0.00    -0.330 OA
HETATM    8  C   UNL     1     -11.649   4.127   0.000  1.00  0.00     0.153 A 
HETATM    9  C   UNL     1     -10.278   4.737   0.000  1.00  0.00     0.057 A 
HETATM   10  N   UNL     1     -10.024  -0.275   0.000  1.00  0.00    -0.147 NA
HETATM   11  N   UNL     1      -9.274  -1.574   0.000  1.00  0.00    -0.153 NA
HETATM   12  C   UNL     1      -7.774  -1.574   0.000  1.00  0.00     0.077 A 
HETATM   13  C   UNL     1      -7.024  -2.873   0.000  1.00  0.00     0.053 A 
HETATM   14  C   UNL     1      -5.524  -2.873   0.000  1.00  0.00     0.046 A 
HETATM   15  C   UNL     1      -4.774  -1.574   0.000  1.00  0.00     0.015 A 
HETATM   16  C   UNL     1      -5.524  -0.275   0.000  1.00  0.00     0.066 A 
HETATM   17  C   UNL     1      -7.024  -0.275   0.000  1.00  0.00    -0.004 A 
ENDROOT
BRANCH  15  18
HETATM   18  N   UNL     1      -3.275  -1.574   0.000  1.00  0.00    -0.351 N 
HETATM   19  C   UNL     1      -2.525  -0.275   0.000  1.00  0.00     0.125 C 
HETATM   20  C   UNL     1      -2.525  -2.873   0.000  1.00  0.00     0.125 C 
ENDBRANCH  15  18
TORSDOF 1
