REMARK  3 active torsions:
REMARK  status: ('A' for Active; 'I' for Inactive)
REMARK    1  A    between atoms: N_12  and  C_13 
REMARK    2  A    between atoms: C_13  and  C_14 
REMARK    3  A    between atoms: C_17  and  C_18 
ROOT
HETATM    1  N   UNL     1      -3.348   3.000   0.000  1.00  0.00    -0.262 N 
HETATM    2  P   UNL     1      -2.049   3.750   0.000  1.00  0.00     0.404 P 
HETATM    3  O   UNL     1      -1.085   4.899   0.000  1.00  0.00    -0.240 OA
HETATM    4  O   UNL     1      -0.750   3.000   0.000  1.00  0.00    -0.283 OA
HETATM    5  C   UNL     1      -4.647   3.750   0.000  1.00  0.00     0.059 A 
HETATM    6  C   UNL     1      -5.946   3.000   0.000  1.00  0.00     0.046 A 
HETATM    7  C   UNL     1      -5.946   1.500   0.000  1.00  0.00     0.012 A 
HETATM    8  C   UNL     1      -4.647   0.750   0.000  1.00  0.00     0.040 A 
HETATM    9  C   UNL     1      -0.750   1.500   0.000  1.00  0.00     0.159 A 
HETATM   10  C   UNL     1      -2.049   0.750   0.000  1.00  0.00     0.072 A 
HETATM   11  C   UNL     1      -3.348   1.500   0.000  1.00  0.00     0.026 A 
HETATM   12  N   UNL     1      -3.013   4.899   0.000  1.00  0.00    -0.272 N 
HETATM   13  C   UNL     1      -4.490   4.639   0.000  1.00  0.00     0.070 A 
ENDROOT
BRANCH  12  14
HETATM   14  C   UNL     1      -2.500   6.309   0.000  1.00  0.00     0.128 C 
BRANCH  14  15
HETATM   15  C   UNL     1      -1.023   6.569   0.000  1.00  0.00     0.120 C 
HETATM   16 CL   UNL     1      -0.510   7.979   0.000  1.00  0.00    -0.112 Cl
ENDBRANCH  14  15
ENDBRANCH  12  14
BRANCH  13  17
HETATM   17  C   UNL     1      -5.455   5.788   0.000  1.00  0.00     0.140 C 
HETATM   18 CL   UNL     1      -6.932   5.527   0.000  1.00  0.00    -0.107 Cl
ENDBRANCH  13  17
TORSDOF 3
