REMARK  4 active torsions:
REMARK  status: ('A' for Active; 'I' for Inactive)
REMARK    1  A    between atoms: O_1  and  C_8 
REMARK    2  A    between atoms: O_1  and  C_21 
REMARK    3  A    between atoms: N_2  and  C_11 
REMARK    4  A    between atoms: N_2  and  C_16 
REMARK       I    between atoms: N_2  and  C_21 
ROOT
HETATM    1  N   UNL     1      -5.946  -3.000   0.000  1.00  0.00    -0.281 N 
HETATM    2  C   UNL     1      -5.946  -1.500   0.000  1.00  0.00     0.303 C 
HETATM    3  O   UNL     1      -7.245  -0.750   0.000  1.00  0.00    -0.142 OA
ENDROOT
BRANCH   1   4
HETATM    4  C   UNL     1      -4.647  -3.750   0.000  1.00  0.00     0.022 A 
HETATM    5  C   UNL     1      -3.348  -3.000   0.000  1.00  0.00     0.040 A 
HETATM    6  C   UNL     1      -2.049  -3.750   0.000  1.00  0.00     0.006 A 
HETATM    7  C   UNL     1      -2.049  -5.250   0.000  1.00  0.00     0.001 A 
HETATM    8  C   UNL     1      -3.348  -6.000   0.000  1.00  0.00     0.006 A 
HETATM    9  C   UNL     1      -4.647  -5.250   0.000  1.00  0.00     0.040 A 
ENDBRANCH   1   4
BRANCH   1  10
HETATM   10  C   UNL     1      -7.245  -3.750   0.000  1.00  0.00     0.022 A 
HETATM   11  C   UNL     1      -8.544  -3.000   0.000  1.00  0.00     0.040 A 
HETATM   12  C   UNL     1      -9.843  -3.750   0.000  1.00  0.00     0.006 A 
HETATM   13  C   UNL     1      -9.843  -5.250   0.000  1.00  0.00     0.001 A 
HETATM   14  C   UNL     1      -8.544  -6.000   0.000  1.00  0.00     0.006 A 
HETATM   15  C   UNL     1      -7.245  -5.250   0.000  1.00  0.00     0.040 A 
ENDBRANCH   1  10
BRANCH   2  16
HETATM   16  O   UNL     1      -4.647  -0.750   0.000  1.00  0.00    -0.298 OA
BRANCH  16  17
HETATM   17  C   UNL     1      -4.647   0.750   0.000  1.00  0.00     0.125 A 
HETATM   18  C   UNL     1      -5.946   1.500   0.000  1.00  0.00     0.030 A 
HETATM   19  C   UNL     1      -5.946   3.000   0.000  1.00  0.00     0.003 A 
HETATM   20  C   UNL     1      -4.647   3.750   0.000  1.00  0.00     0.000 A 
HETATM   21  C   UNL     1      -3.348   3.000   0.000  1.00  0.00     0.003 A 
HETATM   22  C   UNL     1      -3.348   1.500   0.000  1.00  0.00     0.030 A 
ENDBRANCH  16  17
ENDBRANCH   2  16
TORSDOF 4
