REMARK  0 active torsions:
REMARK  status: ('A' for Active; 'I' for Inactive)
ROOT
HETATM    1  C   UNL     1      -8.819   1.226   0.000  1.00  0.00     0.304 A 
HETATM    2  C   UNL     1      -7.520  -1.024   0.000  1.00  0.00     0.190 A 
HETATM    3  C   UNL     1      -6.221  -0.275   0.000  1.00  0.00     0.079 A 
HETATM    4  C   UNL     1      -6.221   1.226   0.000  1.00  0.00     0.218 A 
HETATM    5  O   UNL     1     -10.118   1.976   0.000  1.00  0.00    -0.147 OA
HETATM    6  N   UNL     1      -8.819  -0.275   0.000  1.00  0.00    -0.182 NA
HETATM    7  N   UNL     1      -7.520   1.976   0.000  1.00  0.00    -0.177 NA
HETATM    8  O   UNL     1      -4.922   1.976   0.000  1.00  0.00    -0.169 OA
HETATM    9  N   UNL     1      -7.520  -2.525   0.000  1.00  0.00    -0.129 NA
HETATM   10  N   UNL     1      -6.221  -3.275   0.000  1.00  0.00    -0.151 NA
HETATM   11  C   UNL     1      -4.922  -1.024   0.000  1.00  0.00     0.005 A 
HETATM   12  C   UNL     1      -4.922  -2.525   0.000  1.00  0.00     0.077 A 
HETATM   13  C   UNL     1      -3.623  -3.275   0.000  1.00  0.00     0.053 A 
HETATM   14  C   UNL     1      -2.324  -2.525   0.000  1.00  0.00     0.040 A 
HETATM   15  C   UNL     1      -2.324  -1.024   0.000  1.00  0.00     0.018 A 
HETATM   16  C   UNL     1      -3.623  -0.275   0.000  1.00  0.00     0.061 A 
HETATM   17 CL   UNL     1      -1.024  -0.275   0.000  1.00  0.00    -0.091 Cl
ENDROOT
TORSDOF 0
