REMARK  1 active torsions:
REMARK  status: ('A' for Active; 'I' for Inactive)
REMARK    1  A    between atoms: C_6  and  C_9 
ROOT
HETATM    1  O   UNL     1      -6.770  -4.774   0.000  1.00  0.00    -0.194 OA
HETATM    2  O   UNL     1      -4.172  -9.274   0.000  1.00  0.00    -0.290 OA
HETATM    3  O   UNL     1      -2.873  -7.024   0.000  1.00  0.00    -0.290 OA
HETATM    4  C   UNL     1      -2.873  -5.524   0.000  1.00  0.00     0.078 A 
HETATM    5  C   UNL     1      -4.172  -4.774   0.000  1.00  0.00     0.105 A 
HETATM    6  C   UNL     1      -5.471  -5.524   0.000  1.00  0.00     0.121 A 
HETATM    7  C   UNL     1      -5.471  -7.024   0.000  1.00  0.00     0.093 A 
HETATM    8  C   UNL     1      -4.172  -7.774   0.000  1.00  0.00     0.206 A 
HETATM    9  C   UNL     1      -8.069 -10.024   0.000  1.00  0.00     0.030 A 
HETATM   10  C   UNL     1      -8.069 -11.524   0.000  1.00  0.00     0.005 A 
HETATM   11  C   UNL     1      -6.770  -9.274   0.000  1.00  0.00     0.022 A 
HETATM   12  C   UNL     1      -5.471 -10.024   0.000  1.00  0.00     0.078 A 
HETATM   13  C   UNL     1      -6.770 -12.274   0.000  1.00  0.00     0.007 A 
HETATM   14  C   UNL     1      -5.471 -11.524   0.000  1.00  0.00     0.051 A 
HETATM   15  C   UNL     1      -6.770  -7.774   0.000  1.00  0.00     0.134 A 
HETATM   16  O   UNL     1      -8.069  -7.024   0.000  1.00  0.00    -0.190 OA
ENDROOT
BRANCH   4  17
HETATM   17  C   UNL     1      -1.574  -4.774   0.000  1.00  0.00    -0.025 A 
HETATM   18  C   UNL     1      -1.574  -3.275   0.000  1.00  0.00     0.024 A 
HETATM   19  C   UNL     1      -0.275  -2.525   0.000  1.00  0.00     0.004 A 
HETATM   20  C   UNL     1       1.024  -3.275   0.000  1.00  0.00     0.001 A 
HETATM   21  C   UNL     1       1.024  -4.774   0.000  1.00  0.00     0.004 A 
HETATM   22  C   UNL     1      -0.275  -5.524   0.000  1.00  0.00     0.024 A 
ENDBRANCH   4  17
TORSDOF 1
