REMARK  1 active torsions:
REMARK  status: ('A' for Active; 'I' for Inactive)
REMARK    1  A    between atoms: C_8  and  C_10 
ROOT
HETATM    1  N   UNL     1      -1.552  -3.311   0.000  1.00  0.00    -0.352 N 
HETATM    2  H   UNL     1      -1.552  -1.811   0.000  1.00  0.00     0.162 HD
HETATM    3  O   UNL     1       1.046  -3.311   0.000  1.00  0.00    -0.176 OA
HETATM    4  C   UNL     1      -0.254  -4.061   0.000  1.00  0.00     0.165 A 
HETATM    5  C   UNL     1      -0.254  -5.561   0.000  1.00  0.00     0.077 A 
HETATM    6  C   UNL     1      -1.552  -6.311   0.000  1.00  0.00     0.034 A 
HETATM    7  C   UNL     1      -2.852  -5.561   0.000  1.00  0.00    -0.011 A 
HETATM    8  C   UNL     1      -2.852  -4.061   0.000  1.00  0.00     0.123 A 
ENDROOT
BRANCH   7   9
HETATM    9  C   UNL     1      -4.151  -6.311   0.000  1.00  0.00     0.027 A 
HETATM   10  N   UNL     1      -5.521  -5.701   0.000  1.00  0.00    -0.350 N 
HETATM   11  C   UNL     1      -6.525  -6.816   0.000  1.00  0.00     0.102 A 
HETATM   12  C   UNL     1      -5.833  -4.234   0.000  1.00  0.00     0.125 C 
HETATM   13  C   UNL     1      -5.775  -8.115   0.000  1.00  0.00     0.030 A 
HETATM   14  C   UNL     1      -4.307  -7.803   0.000  1.00  0.00     0.045 A 
ENDBRANCH   7   9
TORSDOF 1
