REMARK  0 active torsions:
REMARK  status: ('A' for Active; 'I' for Inactive)
ROOT
HETATM    1 CL   UNL     1      -3.635   4.205   0.000  1.00  0.00    -0.091 Cl
HETATM    2 CL   UNL     1       1.562   4.205   0.000  1.00  0.00    -0.087 Cl
HETATM    3  C   UNL     1      -1.036   7.205   0.000  1.00  0.00    -0.019 A 
HETATM    4  C   UNL     1      -2.335   6.455   0.000  1.00  0.00     0.060 A 
HETATM    5  C   UNL     1       0.263   6.455   0.000  1.00  0.00     0.046 A 
HETATM    6  C   UNL     1       0.263   4.955   0.000  1.00  0.00     0.044 A 
HETATM    7  C   UNL     1      -2.335   4.955   0.000  1.00  0.00     0.023 A 
HETATM    8  C   UNL     1      -1.036   4.205   0.000  1.00  0.00     0.072 A 
HETATM    9  C   UNL     1       1.562   7.205   0.000  1.00  0.00     0.209 A 
HETATM   10  O   UNL     1       2.861   6.455   0.000  1.00  0.00    -0.170 OA
HETATM   11  N   UNL     1       1.562   8.705   0.000  1.00  0.00    -0.242 NA
HETATM   12  C   UNL     1       0.263   9.455   0.000  1.00  0.00     0.150 A 
HETATM   13  C   UNL     1      -1.036   8.705   0.000  1.00  0.00    -0.023 A 
HETATM   14  C   UNL     1      -2.335   9.455   0.000  1.00  0.00     0.028 C 
ENDROOT
TORSDOF 0
