REMARK  2 active torsions:
REMARK  status: ('A' for Active; 'I' for Inactive)
REMARK    1  A    between atoms: C_5  and  N_13 
REMARK    2  A    between atoms: C_10  and  C_15 
ROOT
HETATM    1  C   UNL     1       5.250   3.348   0.000  1.00  0.00     0.045 A 
HETATM    2  C   UNL     1       6.000   2.049   0.000  1.00  0.00     0.046 A 
HETATM    3  C   UNL     1       6.000   4.647   0.000  1.00  0.00     0.046 A 
HETATM    4  C   UNL     1       7.500   2.049   0.000  1.00  0.00     0.027 A 
HETATM    5  C   UNL     1       7.500   4.647   0.000  1.00  0.00     0.027 A 
HETATM    6  C   UNL     1       8.250   3.348   0.000  1.00  0.00    -0.051 A 
ENDROOT
BRANCH   1   7
HETATM    7  N   UNL     1       3.750   3.348   0.000  1.00  0.00    -0.202 N 
HETATM    8  C   UNL     1       3.000   4.647   0.000  1.00  0.00     0.194 A 
HETATM    9  O   UNL     1       3.750   5.946   0.000  1.00  0.00    -0.174 OA
HETATM   10  C   UNL     1       1.500   4.647   0.000  1.00  0.00     0.080 A 
HETATM   11  C   UNL     1       0.750   3.348   0.000  1.00  0.00     0.075 A 
HETATM   12  C   UNL     1       1.500   2.049   0.000  1.00  0.00     0.294 A 
HETATM   13  O   UNL     1       0.750   0.750   0.000  1.00  0.00    -0.188 OA
HETATM   14  O   UNL     1       3.000   2.049   0.000  1.00  0.00    -0.222 OA
ENDBRANCH   1   7
BRANCH   6  15
HETATM   15  C   UNL     1       9.750   3.348   0.000  1.00  0.00    -0.052 A 
HETATM   16  C   UNL     1      10.500   4.647   0.000  1.00  0.00     0.021 A 
HETATM   17  C   UNL     1      12.000   4.647   0.000  1.00  0.00     0.004 A 
HETATM   18  C   UNL     1      12.750   3.348   0.000  1.00  0.00     0.001 A 
HETATM   19  C   UNL     1      12.000   2.049   0.000  1.00  0.00     0.004 A 
HETATM   20  C   UNL     1      10.500   2.049   0.000  1.00  0.00     0.021 A 
ENDBRANCH   6  15
TORSDOF 2
