REMARK  1 active torsions:
REMARK  status: ('A' for Active; 'I' for Inactive)
REMARK    1  A    between atoms: C_12  and  C_18 
ROOT
HETATM    1  C   UNL     1       0.750   4.500   0.000  1.00  0.00     0.005 A 
HETATM    2  C   UNL     1       0.750   3.000   0.000  1.00  0.00     0.006 A 
HETATM    3  C   UNL     1       2.049   2.250   0.000  1.00  0.00     0.038 A 
HETATM    4  C   UNL     1       3.348   3.000   0.000  1.00  0.00     0.063 A 
HETATM    5  C   UNL     1       3.348   4.500   0.000  1.00  0.00     0.010 A 
HETATM    6  C   UNL     1       2.049   5.250   0.000  1.00  0.00     0.029 A 
HETATM    7  S   UNL     1       4.647   2.250   0.000  1.00  0.00     0.202 S 
HETATM    8  C   UNL     1       5.946   3.000   0.000  1.00  0.00     0.068 A 
HETATM    9  C   UNL     1       5.946   4.500   0.000  1.00  0.00     0.010 A 
HETATM   10  C   UNL     1       4.647   5.250   0.000  1.00  0.00     0.124 A 
HETATM   11  C   UNL     1       7.245   2.250   0.000  1.00  0.00     0.063 A 
HETATM   12  C   UNL     1       8.544   3.000   0.000  1.00  0.00     0.000 A 
HETATM   13  C   UNL     1       8.544   4.500   0.000  1.00  0.00     0.030 A 
HETATM   14  C   UNL     1       7.245   5.250   0.000  1.00  0.00     0.033 A 
HETATM   15  O   UNL     1       4.647   6.750   0.000  1.00  0.00    -0.191 OA
HETATM   16  O   UNL     1       3.683   1.101   0.000  1.00  0.00    -0.218 OA
HETATM   17  O   UNL     1       5.611   1.101   0.000  1.00  0.00    -0.218 OA
ENDROOT
BRANCH  12  18
HETATM   18  C   UNL     1       9.843   2.250   0.000  1.00  0.00     0.193 C 
HETATM   19  O   UNL     1       9.843   0.750   0.000  1.00  0.00    -0.175 OA
HETATM   20  N   UNL     1      11.142   3.000   0.000  1.00  0.00    -0.071 NA
ENDBRANCH  12  18
TORSDOF 1
