REMARK  4 active torsions:
REMARK  status: ('A' for Active; 'I' for Inactive)
REMARK    1  A    between atoms: C_3  and  O_20 
REMARK    2  A    between atoms: C_8  and  N_17 
REMARK    3  A    between atoms: C_9  and  C_13 
REMARK       I    between atoms: N_17  and  C_18 
REMARK    4  A    between atoms: C_18  and  O_20 
ROOT
HETATM    1  C   UNL     1      -0.275   5.524   0.000  1.00  0.00     0.076 A 
HETATM    2  C   UNL     1       1.024   4.774   0.000  1.00  0.00     0.046 A 
HETATM    3  C   UNL     1      -1.574   4.774   0.000  1.00  0.00     0.069 A 
HETATM    4  C   UNL     1       1.024   3.275   0.000  1.00  0.00     0.049 A 
HETATM    5  C   UNL     1      -1.574   3.275   0.000  1.00  0.00     0.111 A 
HETATM    6  C   UNL     1      -0.275   2.525   0.000  1.00  0.00     0.060 A 
HETATM    7  O   UNL     1      -2.873   2.525   0.000  1.00  0.00    -0.195 OA
ENDROOT
BRANCH   2   8
HETATM    8  N   UNL     1       2.324   5.524   0.000  1.00  0.00    -0.207 NA
HETATM    9  C   UNL     1       2.324   7.024   0.000  1.00  0.00     0.318 C 
HETATM   10  O   UNL     1       3.623   7.774   0.000  1.00  0.00    -0.141 OA
BRANCH   9  11
HETATM   11  O   UNL     1       1.024   7.774   0.000  1.00  0.00    -0.297 OA
BRANCH  11  12
HETATM   12  C   UNL     1       1.024   9.274   0.000  1.00  0.00     0.125 A 
HETATM   13  C   UNL     1      -0.275  10.024   0.000  1.00  0.00     0.030 A 
HETATM   14  C   UNL     1      -0.275  11.524   0.000  1.00  0.00     0.003 A 
HETATM   15  C   UNL     1       1.024  12.274   0.000  1.00  0.00     0.000 A 
HETATM   16  C   UNL     1       2.324  11.524   0.000  1.00  0.00     0.003 A 
HETATM   17  C   UNL     1       2.324  10.024   0.000  1.00  0.00     0.030 A 
ENDBRANCH  11  12
ENDBRANCH   9  11
ENDBRANCH   2   8
BRANCH   3  18
HETATM   18  C   UNL     1      -2.873   5.524   0.000  1.00  0.00     0.209 C 
HETATM   19  O   UNL     1      -4.172   4.774   0.000  1.00  0.00    -0.644 OA
HETATM   20  O   UNL     1      -2.873   7.024   0.000  1.00  0.00    -0.644 OA
ENDBRANCH   3  18
TORSDOF 4
