REMARK  3 active torsions:
REMARK  status: ('A' for Active; 'I' for Inactive)
REMARK    1  A    between atoms: C_5  and  C_9 
REMARK    2  A    between atoms: C_9  and  N_10 
REMARK    3  A    between atoms: N_10  and  N_11 
REMARK       I    between atoms: N_11  and  C_12 
ROOT
HETATM    1 CL   UNL     1      -8.544  -0.750   0.000  1.00  0.00    -0.087 Cl
HETATM    2 CL   UNL     1      -5.946  -5.250   0.000  1.00  0.00    -0.087 Cl
HETATM    3  C   UNL     1      -8.544  -2.250   0.000  1.00  0.00     0.034 A 
HETATM    4  C   UNL     1      -9.843  -3.000   0.000  1.00  0.00     0.038 A 
HETATM    5  C   UNL     1      -7.245  -3.000   0.000  1.00  0.00     0.017 A 
HETATM    6  C   UNL     1      -7.245  -4.500   0.000  1.00  0.00     0.034 A 
HETATM    7  C   UNL     1      -9.843  -4.500   0.000  1.00  0.00     0.011 A 
HETATM    8  C   UNL     1      -8.544  -5.250   0.000  1.00  0.00     0.038 A 
ENDROOT
BRANCH   5   9
HETATM    9  C   UNL     1      -5.946  -2.250   0.000  1.00  0.00     0.177 C 
BRANCH   9  10
HETATM   10  N   UNL     1      -4.647  -3.000   0.000  1.00  0.00    -0.168 NA
BRANCH  10  11
HETATM   11  N   UNL     1      -3.348  -2.250   0.000  1.00  0.00    -0.123 NA
HETATM   12  C   UNL     1      -2.049  -3.000   0.000  1.00  0.00     0.243 C 
HETATM   13  N   UNL     1      -0.750  -2.250   0.000  1.00  0.00    -0.063 NA
HETATM   14  N   UNL     1      -2.049  -4.500   0.000  1.00  0.00    -0.063 NA
ENDBRANCH  10  11
ENDBRANCH   9  10
ENDBRANCH   5   9
TORSDOF 3
