REMARK  2 active torsions:
REMARK  status: ('A' for Active; 'I' for Inactive)
REMARK    1  A    between atoms: C_6  and  N_7 
REMARK    2  A    between atoms: N_12  and  C_16 
ROOT
HETATM    1  C   UNL     1      -0.924   7.399   0.000  1.00  0.00    -0.038 A 
HETATM    2  C   UNL     1      -2.223   6.649   0.000  1.00  0.00     0.028 A 
HETATM    3  C   UNL     1       0.375   6.649   0.000  1.00  0.00     0.018 A 
HETATM    4  C   UNL     1       0.375   5.149   0.000  1.00  0.00     0.075 A 
HETATM    5  C   UNL     1      -2.223   5.149   0.000  1.00  0.00     0.051 A 
HETATM    6  C   UNL     1      -0.924   4.399   0.000  1.00  0.00     0.087 A 
HETATM    7  C   UNL     1       1.674   7.399   0.000  1.00  0.00     0.193 A 
HETATM    8  O   UNL     1       2.973   6.649   0.000  1.00  0.00    -0.171 OA
HETATM    9  N   UNL     1       1.674   8.899   0.000  1.00  0.00    -0.301 N 
HETATM   10  C   UNL     1       0.375   9.649   0.000  1.00  0.00     0.025 A 
HETATM   11  C   UNL     1      -0.924   8.899   0.000  1.00  0.00     0.061 A 
HETATM   12  C   UNL     1       0.375  11.149   0.000  1.00  0.00     0.046 C 
ENDROOT
BRANCH   6  13
HETATM   13  N   UNL     1      -0.924   2.900   0.000  1.00  0.00    -0.122 N 
HETATM   14  O   UNL     1      -2.223   2.150   0.000  1.00  0.00    -0.532 OA
HETATM   15  O   UNL     1       0.375   2.150   0.000  1.00  0.00    -0.532 OA
ENDBRANCH   6  13
BRANCH   9  16
HETATM   16  C   UNL     1       2.973   9.649   0.000  1.00  0.00     0.021 C 
HETATM   17  C   UNL     1       4.272   8.899   0.000  1.00  0.00     0.046 C 
HETATM   18  C   UNL     1       2.973  11.149   0.000  1.00  0.00     0.046 C 
ENDBRANCH   9  16
TORSDOF 2
