REMARK  0 active torsions:
REMARK  status: ('A' for Active; 'I' for Inactive)
ROOT
HETATM    1  N   UNL     1      -5.250  -4.963   0.000  1.00  0.00    -0.287 N 
HETATM    2  O   UNL     1      -5.668  -7.604   0.000  1.00  0.00    -0.171 OA
HETATM    3  N   UNL     1      -0.818  -5.745   0.000  1.00  0.00    -0.294 NA
HETATM    4  C   UNL     1      -2.684  -0.858   0.000  1.00  0.00     0.005 A 
HETATM    5  C   UNL     1      -4.094  -0.344   0.000  1.00  0.00     0.005 A 
HETATM    6  C   UNL     1      -2.424  -2.335   0.000  1.00  0.00     0.028 A 
HETATM    7  C   UNL     1      -3.573  -3.299   0.000  1.00  0.00    -0.041 A 
HETATM    8  C   UNL     1      -5.243  -1.309   0.000  1.00  0.00     0.026 A 
HETATM    9  C   UNL     1      -4.983  -2.786   0.000  1.00  0.00    -0.001 A 
HETATM   10  C   UNL     1      -6.132  -3.750   0.000  1.00  0.00     0.228 A 
HETATM   11  C   UNL     1      -7.558  -4.213   0.000  1.00  0.00     0.006 A 
HETATM   12  C   UNL     1      -8.857  -3.463   0.000  1.00  0.00     0.026 A 
HETATM   13  C   UNL     1     -10.156  -4.213   0.000  1.00  0.00     0.005 A 
HETATM   14  C   UNL     1      -7.558  -5.713   0.000  1.00  0.00     0.017 A 
HETATM   15  C   UNL     1     -10.156  -5.713   0.000  1.00  0.00     0.005 A 
HETATM   16  C   UNL     1      -8.857  -6.463   0.000  1.00  0.00     0.029 A 
HETATM   17  C   UNL     1      -6.132  -6.177   0.000  1.00  0.00     0.192 A 
HETATM   18  C   UNL     1      -2.809  -4.075   0.000  1.00  0.00     0.070 A 
HETATM   19  C   UNL     1      -3.773  -5.224   0.000  1.00  0.00     0.026 A 
HETATM   20  C   UNL     1      -1.331  -4.335   0.000  1.00  0.00     0.129 A 
HETATM   21  C   UNL     1      -3.260  -6.633   0.000  1.00  0.00     0.066 A 
HETATM   22  C   UNL     1      -1.782  -6.894   0.000  1.00  0.00     0.126 A 
HETATM   23  O   UNL     1      -6.742  -2.380   0.000  1.00  0.00    -0.194 OA
ENDROOT
TORSDOF 0
