REMARK  2 active torsions:
REMARK  status: ('A' for Active; 'I' for Inactive)
REMARK    1  A    between atoms: C_6  and  N_18 
REMARK    2  A    between atoms: C_7  and  N_18 
ROOT
HETATM    1  C   UNL     1       3.727  -2.578   0.000  1.00  0.00     0.078 A 
HETATM    2  C   UNL     1       5.026  -3.328   0.000  1.00  0.00     0.020 A 
HETATM    3  C   UNL     1       2.428  -3.328   0.000  1.00  0.00     0.020 A 
HETATM    4  C   UNL     1       5.026  -4.828   0.000  1.00  0.00     0.042 A 
HETATM    5  C   UNL     1       2.428  -4.828   0.000  1.00  0.00     0.042 A 
HETATM    6  C   UNL     1       3.727  -5.578   0.000  1.00  0.00     0.037 A 
HETATM    7  C   UNL     1       3.727  -1.078   0.000  1.00  0.00    -0.007 C 
HETATM    8  N   UNL     1       3.727   0.422   0.000  1.00  0.00    -0.101 N 
ENDROOT
BRANCH   6   9
HETATM    9  N   UNL     1       3.727  -7.078   0.000  1.00  0.00    -0.253 NA
BRANCH   9  10
HETATM   10  C   UNL     1       5.026  -7.828   0.000  1.00  0.00     0.098 A 
HETATM   11  C   UNL     1       5.183  -9.319   0.000  1.00  0.00    -0.010 A 
HETATM   12  C   UNL     1       6.650  -9.631   0.000  1.00  0.00    -0.040 A 
HETATM   13  C   UNL     1       4.179 -10.434   0.000  1.00  0.00     0.027 A 
HETATM   14  C   UNL     1       7.400  -8.332   0.000  1.00  0.00     0.077 A 
HETATM   15  C   UNL     1       7.113 -11.058   0.000  1.00  0.00     0.022 A 
HETATM   16  C   UNL     1       6.396  -7.218   0.000  1.00  0.00     0.130 A 
HETATM   17  O   UNL     1       6.708  -5.750   0.000  1.00  0.00    -0.193 OA
HETATM   18  C   UNL     1       6.110 -12.173   0.000  1.00  0.00     0.005 A 
HETATM   19  C   UNL     1       4.642 -11.861   0.000  1.00  0.00     0.005 A 
ENDBRANCH   9  10
ENDBRANCH   6   9
TORSDOF 2
