REMARK  4 active torsions:
REMARK  status: ('A' for Active; 'I' for Inactive)
REMARK    1  A    between atoms: C_8  and  C_19 
REMARK    2  A    between atoms: C_12  and  C_20 
REMARK    3  A    between atoms: C_13  and  N_14 
REMARK       I    between atoms: N_14  and  C_15 
REMARK    4  A    between atoms: C_19  and  C_20 
ROOT
HETATM    1  N   UNL     1      -6.820  -6.304   0.000  1.00  0.00    -0.035 NA
HETATM    2  N   UNL     1      -5.521  -8.554   0.000  1.00  0.00    -0.190 N 
HETATM    3  O   UNL     1      -5.521  -4.054   0.000  1.00  0.00    -0.169 OA
HETATM    4  H   UNL     1      -5.521 -10.054   0.000  1.00  0.00     0.184 HD
HETATM    5  C   UNL     1      -5.521  -5.554   0.000  1.00  0.00     0.227 A 
HETATM    6  C   UNL     1      -4.222  -6.304   0.000  1.00  0.00     0.034 A 
HETATM    7  C   UNL     1      -4.222  -7.804   0.000  1.00  0.00     0.050 A 
HETATM    8  C   UNL     1      -6.820  -7.804   0.000  1.00  0.00     0.731 A 
HETATM    9  C   UNL     1      -2.923  -8.554   0.000  1.00  0.00     0.050 C 
ENDROOT
BRANCH   6  10
HETATM   10  C   UNL     1      -2.923  -5.554   0.000  1.00  0.00     0.036 C 
BRANCH  10  11
HETATM   11  C   UNL     1      -2.923  -4.054   0.000  1.00  0.00     0.066 C 
BRANCH  11  12
HETATM   12  C   UNL     1      -1.624  -3.304   0.000  1.00  0.00     0.236 A 
HETATM   13  O   UNL     1      -0.254  -3.914   0.000  1.00  0.00    -0.328 OA
HETATM   14  C   UNL     1       0.750  -2.799   0.000  1.00  0.00     0.177 A 
HETATM   15  C   UNL     1       0.000  -1.500   0.000  1.00  0.00     0.177 A 
HETATM   16  O   UNL     1      -1.467  -1.812   0.000  1.00  0.00    -0.328 OA
ENDBRANCH  11  12
ENDBRANCH  10  11
ENDBRANCH   6  10
BRANCH   8  17
HETATM   17  N   UNL     1      -8.119  -8.554   0.000  1.00  0.00    -0.038 NA
HETATM   18  C   UNL     1      -9.418  -7.804   0.000  1.00  0.00     0.208 C 
HETATM   19  O   UNL     1     -10.717  -8.554   0.000  1.00  0.00    -0.173 OA
HETATM   20  C   UNL     1      -9.418  -6.304   0.000  1.00  0.00     0.084 C 
ENDBRANCH   8  17
TORSDOF 4
