REMARK  0 active torsions:
REMARK  status: ('A' for Active; 'I' for Inactive)
ROOT
HETATM    1  O   UNL     1       4.302   5.865   0.000  1.00  0.00    -0.061 OA
HETATM    2  N   UNL     1       5.237   4.692   0.000  1.00  0.00    -0.107 N 
HETATM    3  N   UNL     1       6.700   5.026   0.000  1.00  0.00    -0.147 NA
HETATM    4  C   UNL     1       7.873   4.091   0.000  1.00  0.00     0.079 A 
HETATM    5  C   UNL     1       9.172   4.841   0.000  1.00  0.00     0.086 A 
HETATM    6  C   UNL     1      10.471   4.091   0.000  1.00  0.00     0.308 A 
HETATM    7  C   UNL     1      10.471   2.591   0.000  1.00  0.00     0.044 A 
HETATM    8  C   UNL     1       7.873   2.591   0.000  1.00  0.00    -0.007 A 
HETATM    9  C   UNL     1       9.172   1.841   0.000  1.00  0.00     0.030 A 
HETATM   10  C   UNL     1       6.700   1.656   0.000  1.00  0.00    -0.006 A 
HETATM   11  C   UNL     1       5.237   1.989   0.000  1.00  0.00    -0.006 A 
HETATM   12  C   UNL     1       4.587   3.341   0.000  1.00  0.00     0.086 A 
HETATM   13  C   UNL     1       3.091   3.453   0.000  1.00  0.00     0.087 A 
HETATM   14  C   UNL     1       2.246   2.213   0.000  1.00  0.00     0.308 A 
HETATM   15  C   UNL     1       2.897   0.862   0.000  1.00  0.00     0.044 A 
HETATM   16  C   UNL     1       4.392   0.750   0.000  1.00  0.00     0.030 A 
HETATM   17  N   UNL     1       0.750   2.326   0.000  1.00  0.00     0.616 N 
HETATM   18  N   UNL     1      11.770   4.841   0.000  1.00  0.00     0.616 N 
ENDROOT
TORSDOF 0
