REMARK  2 active torsions:
REMARK  status: ('A' for Active; 'I' for Inactive)
REMARK    1  A    between atoms: C_15  and  N_18 
REMARK    2  A    between atoms: C_24  and  N_26 
ROOT
HETATM    1  C   UNL     1      -1.897  -5.527   0.000  1.00  0.00     0.029 A 
HETATM    2  C   UNL     1      -1.015  -6.740   0.000  1.00  0.00     0.002 A 
HETATM    3  C   UNL     1      -3.323  -5.990   0.000  1.00  0.00     0.015 A 
HETATM    4  C   UNL     1      -4.622  -5.240   0.000  1.00  0.00    -0.037 A 
HETATM    5  C   UNL     1      -5.921  -5.990   0.000  1.00  0.00     0.128 A 
HETATM    6  C   UNL     1      -1.897  -7.954   0.000  1.00  0.00    -0.006 A 
HETATM    7  C   UNL     1      -3.323  -7.490   0.000  1.00  0.00     0.017 A 
HETATM    8  C   UNL     1      -5.921  -7.490   0.000  1.00  0.00     0.060 A 
HETATM    9  C   UNL     1      -4.622  -8.240   0.000  1.00  0.00     0.012 A 
HETATM   10  C   UNL     1      -7.220  -8.241   0.000  1.00  0.00     0.014 A 
HETATM   11  C   UNL     1      -8.519  -7.490   0.000  1.00  0.00    -0.056 A 
HETATM   12  C   UNL     1      -9.818  -8.241   0.000  1.00  0.00     0.062 A 
HETATM   13  C   UNL     1      -4.622  -9.740   0.000  1.00  0.00    -0.007 A 
HETATM   14  C   UNL     1      -7.220  -9.741   0.000  1.00  0.00     0.028 A 
HETATM   15  C   UNL     1      -9.818  -9.741   0.000  1.00  0.00     0.069 A 
HETATM   16  C   UNL     1      -5.921 -10.490   0.000  1.00  0.00    -0.005 A 
HETATM   17  C   UNL     1      -8.519 -10.491   0.000  1.00  0.00     0.039 A 
HETATM   18  C   UNL     1      -7.421  -5.990   0.000  1.00  0.00    -0.017 A 
HETATM   19  C   UNL     1      -7.220  -6.740   0.000  1.00  0.00     0.050 A 
HETATM   20  O   UNL     1      -6.434  -4.581   0.000  1.00  0.00    -0.221 OA
HETATM   21  C   UNL     1      -3.167  -4.499   0.000  1.00  0.00     0.037 A 
HETATM   22  C   UNL     1      -1.433  -4.100   0.000  1.00  0.00     0.116 A 
HETATM   23  C   UNL     1      -2.437  -2.986   0.000  1.00  0.00     0.030 A 
ENDROOT
BRANCH  15  24
HETATM   24  N   UNL     1     -11.117 -10.491   0.000  1.00  0.00    -0.105 NA
HETATM   25  O   UNL     1     -12.416  -9.740   0.000  1.00  0.00    -0.061 OA
ENDBRANCH  15  24
BRANCH  22  26
HETATM   26  N   UNL     1       0.034  -3.788   0.000  1.00  0.00    -0.127 NA
HETATM   27  O   UNL     1       0.498  -2.362   0.000  1.00  0.00    -0.066 OA
ENDBRANCH  22  26
TORSDOF 2
