REMARK  2 active torsions:
REMARK  status: ('A' for Active; 'I' for Inactive)
REMARK    1  A    between atoms: N_5  and  C_17 
REMARK    2  A    between atoms: C_8  and  N_18 
ROOT
HETATM    1 CL   UNL     1       2.973  -3.650   0.000  1.00  0.00    -0.041 Cl
HETATM    2  N   UNL     1       4.272  -1.399   0.000  1.00  0.00    -0.198 NA
HETATM    3  N   UNL     1       5.571  -3.650   0.000  1.00  0.00    -0.197 NA
HETATM    4  N   UNL     1       8.297  -0.936   0.000  1.00  0.00    -0.212 NA
HETATM    5  N   UNL     1       8.297  -3.363   0.000  1.00  0.00    -0.250 N 
HETATM    6 CL   UNL     1      10.678  -2.150   0.000  1.00  0.00    -0.042 Cl
HETATM    7  C   UNL     1       5.571  -0.649   0.000  1.00  0.00     0.164 A 
HETATM    8  C   UNL     1       6.870  -1.399   0.000  1.00  0.00     0.152 A 
HETATM    9  C   UNL     1       6.870  -2.900   0.000  1.00  0.00     0.174 A 
HETATM   10  C   UNL     1       9.178  -2.150   0.000  1.00  0.00     0.212 A 
HETATM   11  C   UNL     1       4.272  -2.900   0.000  1.00  0.00     0.227 A 
ENDROOT
BRANCH   5  12
HETATM   12  C   UNL     1       8.760  -4.790   0.000  1.00  0.00     0.141 A 
HETATM   13  O   UNL     1      10.227  -5.101   0.000  1.00  0.00    -0.319 OA
HETATM   14  C   UNL     1      10.691  -6.528   0.000  1.00  0.00     0.150 A 
HETATM   15  C   UNL     1       9.687  -7.643   0.000  1.00  0.00     0.033 A 
HETATM   16  C   UNL     1       8.220  -7.331   0.000  1.00  0.00     0.011 A 
HETATM   17  C   UNL     1       7.757  -5.904   0.000  1.00  0.00     0.070 A 
ENDBRANCH   5  12
BRANCH   7  18
HETATM   18  N   UNL     1       5.571   0.851   0.000  1.00  0.00    -0.329 N 
HETATM   19  C   UNL     1       4.272   1.601   0.000  1.00  0.00     0.127 C 
HETATM   20  C   UNL     1       6.870   1.601   0.000  1.00  0.00     0.127 C 
ENDBRANCH   7  18
TORSDOF 2
