REMARK  2 active torsions:
REMARK  status: ('A' for Active; 'I' for Inactive)
REMARK    1  A    between atoms: C_2  and  C_31 
REMARK    2  A    between atoms: C_20  and  C_22 
ROOT
HETATM    1  O   UNL     1      -1.024   6.274   0.000  1.00  0.00    -0.193 OA
HETATM    2  C   UNL     1       9.368  10.774   0.000  1.00  0.00     0.070 A 
HETATM    3  C   UNL     1       8.069  10.024   0.000  1.00  0.00     0.004 A 
HETATM    4  C   UNL     1      10.667  10.024   0.000  1.00  0.00     0.010 A 
HETATM    5  C   UNL     1      10.667   8.524   0.000  1.00  0.00     0.001 A 
HETATM    6  C   UNL     1       8.069   8.524   0.000  1.00  0.00     0.024 A 
HETATM    7  C   UNL     1       9.368   7.774   0.000  1.00  0.00    -0.004 A 
HETATM    8  C   UNL     1       6.770   7.774   0.000  1.00  0.00    -0.005 A 
HETATM    9  C   UNL     1       5.471   8.524   0.000  1.00  0.00    -0.001 A 
HETATM   10  C   UNL     1       4.172   7.774   0.000  1.00  0.00     0.000 A 
HETATM   11  C   UNL     1       9.368   6.274   0.000  1.00  0.00    -0.000 A 
HETATM   12  C   UNL     1       6.770   6.274   0.000  1.00  0.00    -0.000 A 
HETATM   13  C   UNL     1       4.172   6.274   0.000  1.00  0.00     0.001 A 
HETATM   14  C   UNL     1       8.069   5.524   0.000  1.00  0.00    -0.000 A 
HETATM   15  C   UNL     1       5.471   5.524   0.000  1.00  0.00     0.000 A 
HETATM   16  C   UNL     1       2.873   5.524   0.000  1.00  0.00     0.010 A 
HETATM   17  C   UNL     1       1.574   6.274   0.000  1.00  0.00     0.057 A 
HETATM   18  C   UNL     1       0.275   5.524   0.000  1.00  0.00     0.133 A 
HETATM   19  C   UNL     1       5.471   4.024   0.000  1.00  0.00     0.001 A 
HETATM   20  C   UNL     1       2.873   4.024   0.000  1.00  0.00     0.018 A 
HETATM   21  C   UNL     1       0.275   4.024   0.000  1.00  0.00     0.144 A 
HETATM   22  C   UNL     1       4.172   3.275   0.000  1.00  0.00     0.004 A 
HETATM   23  C   UNL     1       1.574   3.275   0.000  1.00  0.00    -0.017 A 
HETATM   24  O   UNL     1      -1.024   3.275   0.000  1.00  0.00    -0.189 OA
HETATM   25  C   UNL     1       1.573   1.774   0.000  1.00  0.00     0.029 C 
HETATM   26  C   UNL     1       4.172   4.774   0.000  1.00  0.00     0.004 A 
HETATM   27  C   UNL     1       6.770   9.274   0.000  1.00  0.00    -0.005 A 
HETATM   28  C   UNL     1       6.770   4.774   0.000  1.00  0.00     0.000 A 
HETATM   29  C   UNL     1       8.404  11.924   0.000  1.00  0.00     0.010 C 
HETATM   30  C   UNL     1       9.368   9.274   0.000  1.00  0.00     0.008 A 
ENDROOT
BRANCH   2  31
HETATM   31  C   UNL     1      10.332  11.924   0.000  1.00  0.00     0.184 C 
HETATM   32  O   UNL     1      11.809  11.663   0.000  1.00  0.00    -0.647 OA
HETATM   33  O   UNL     1       9.819  13.333   0.000  1.00  0.00    -0.647 OA
ENDBRANCH   2  31
TORSDOF 2
