REMARK  2 active torsions:
REMARK  status: ('A' for Active; 'I' for Inactive)
REMARK    1  A    between atoms: C_5  and  C_11 
REMARK    2  A    between atoms: C_7  and  C_8 
ROOT
HETATM    1 CL   UNL     1      -3.522   7.399   0.000  1.00  0.00    -0.041 Cl
HETATM    2  N   UNL     1      -2.223   5.149   0.000  1.00  0.00    -0.218 NA
HETATM    3  N   UNL     1      -0.924   7.399   0.000  1.00  0.00    -0.218 NA
HETATM    4  C   UNL     1      -2.223   6.649   0.000  1.00  0.00     0.224 A 
HETATM    5  C   UNL     1       0.375   6.649   0.000  1.00  0.00     0.106 A 
HETATM    6  C   UNL     1       0.375   5.149   0.000  1.00  0.00     0.098 A 
HETATM    7  C   UNL     1      -0.924   4.399   0.000  1.00  0.00     0.106 A 
ENDROOT
BRANCH   5   8
HETATM    8  C   UNL     1       1.674   7.399   0.000  1.00  0.00     0.214 C 
HETATM    9  O   UNL     1       2.973   6.649   0.000  1.00  0.00    -0.174 OA
HETATM   10  N   UNL     1       1.674   8.899   0.000  1.00  0.00    -0.070 NA
ENDBRANCH   5   8
BRANCH   7  11
HETATM   11  C   UNL     1      -0.924   2.900   0.000  1.00  0.00     0.214 C 
HETATM   12  O   UNL     1      -2.223   2.150   0.000  1.00  0.00    -0.174 OA
HETATM   13  N   UNL     1       0.375   2.150   0.000  1.00  0.00    -0.070 NA
ENDBRANCH   7  11
TORSDOF 2
