REMARK  1 active torsions:
REMARK  status: ('A' for Active; 'I' for Inactive)
REMARK    1  A    between atoms: C_4  and  C_20 
ROOT
HETATM    1  N   UNL     1      -7.520   5.524   0.000  1.00  0.00    -0.226 N 
HETATM    2  C   UNL     1      -6.221   7.774   0.000  1.00  0.00     0.046 A 
HETATM    3  C   UNL     1      -7.520   7.024   0.000  1.00  0.00     0.057 A 
HETATM    4  C   UNL     1      -6.221   9.274   0.000  1.00  0.00     0.007 A 
HETATM    5  C   UNL     1      -8.819   7.774   0.000  1.00  0.00    -0.030 A 
HETATM    6  C   UNL     1      -7.520  10.024   0.000  1.00  0.00     0.005 A 
HETATM    7  C   UNL     1     -10.118   7.024   0.000  1.00  0.00     0.029 A 
HETATM    8  C   UNL     1      -8.819   4.774   0.000  1.00  0.00     0.043 A 
HETATM    9  C   UNL     1     -10.118   5.524   0.000  1.00  0.00     0.046 A 
HETATM   10  C   UNL     1      -8.819   9.274   0.000  1.00  0.00     0.023 A 
HETATM   11  C   UNL     1      -8.819   3.275   0.000  1.00  0.00     0.049 A 
HETATM   12  C   UNL     1      -7.520   2.525   0.000  1.00  0.00     0.059 A 
HETATM   13  C   UNL     1      -6.221   3.275   0.000  1.00  0.00     0.099 A 
HETATM   14  O   UNL     1      -6.221   4.774   0.000  1.00  0.00    -0.234 OA
ENDROOT
BRANCH  13  15
HETATM   15  C   UNL     1      -4.922   2.525   0.000  1.00  0.00     0.025 A 
HETATM   16  C   UNL     1      -3.623   3.275   0.000  1.00  0.00     0.107 A 
HETATM   17  C   UNL     1      -2.324   2.525   0.000  1.00  0.00     0.059 A 
HETATM   18  O   UNL     1      -3.623   4.774   0.000  1.00  0.00    -0.195 OA
HETATM   19  C   UNL     1      -2.324   1.024   0.000  1.00  0.00     0.041 A 
HETATM   20  C   UNL     1      -3.623   0.275   0.000  1.00  0.00     0.018 A 
HETATM   21 CL   UNL     1      -3.623  -1.226   0.000  1.00  0.00    -0.091 Cl
HETATM   22  C   UNL     1      -4.922   1.024   0.000  1.00  0.00     0.063 A 
ENDBRANCH  13  15
TORSDOF 1
