REMARK  0 active torsions:
REMARK  status: ('A' for Active; 'I' for Inactive)
ROOT
HETATM    1  N   UNL     1     -10.356  -4.500   0.000  1.00  0.00    -0.290 NA
HETATM    2  N   UNL     1      -3.734  -2.537   0.000  1.00  0.00    -0.357 N 
HETATM    3  H   UNL     1      -3.270  -1.110   0.000  1.00  0.00     0.166 HD
HETATM    4  C   UNL     1      -6.459  -2.250   0.000  1.00  0.00    -0.010 A 
HETATM    5  C   UNL     1      -5.160  -3.000   0.000  1.00  0.00     0.051 A 
HETATM    6  C   UNL     1      -7.758  -3.000   0.000  1.00  0.00    -0.025 A 
HETATM    7  C   UNL     1      -9.057  -2.250   0.000  1.00  0.00     0.052 A 
HETATM    8  C   UNL     1     -10.356  -3.000   0.000  1.00  0.00     0.125 A 
HETATM    9  C   UNL     1      -5.160  -4.500   0.000  1.00  0.00     0.008 A 
HETATM   10  C   UNL     1      -7.758  -4.500   0.000  1.00  0.00    -0.006 A 
HETATM   11  C   UNL     1      -3.734  -4.963   0.000  1.00  0.00    -0.010 A 
HETATM   12  C   UNL     1      -1.360  -3.907   0.000  1.00  0.00     0.043 A 
HETATM   13  C   UNL     1      -0.750  -5.277   0.000  1.00  0.00     0.007 A 
HETATM   14  C   UNL     1      -2.852  -3.750   0.000  1.00  0.00     0.030 A 
HETATM   15  C   UNL     1      -1.632  -6.491   0.000  1.00  0.00     0.005 A 
HETATM   16  C   UNL     1      -3.123  -6.334   0.000  1.00  0.00     0.028 A 
HETATM   17  C   UNL     1      -6.459  -5.250   0.000  1.00  0.00    -0.023 A 
HETATM   18  C   UNL     1      -9.057  -5.250   0.000  1.00  0.00     0.146 A 
HETATM   19  C   UNL     1      -6.459  -0.750   0.000  1.00  0.00     0.032 C 
HETATM   20  C   UNL     1      -6.459  -6.750   0.000  1.00  0.00     0.031 C 
ENDROOT
TORSDOF 0
