REMARK  2 active torsions:
REMARK  status: ('A' for Active; 'I' for Inactive)
REMARK    1  A    between atoms: C_7  and  N_24 
REMARK    2  A    between atoms: C_15  and  N_21 
REMARK       I    between atoms: N_21  and  C_22 
REMARK       I    between atoms: C_22  and  N_24 
ROOT
HETATM    1  N   UNL     1      -8.544  -6.000   0.000  1.00  0.00    -0.212 NA
HETATM    2  C   UNL     1      -7.245  -5.250   0.000  1.00  0.00     0.299 C 
HETATM    3  O   UNL     1      -5.946  -6.000   0.000  1.00  0.00    -0.147 OA
HETATM    4  N   UNL     1      -7.245  -3.750   0.000  1.00  0.00    -0.212 NA
ENDROOT
BRANCH   1   5
HETATM    5  C   UNL     1      -9.843  -5.250   0.000  1.00  0.00     0.045 A 
HETATM    6  C   UNL     1      -9.843  -3.750   0.000  1.00  0.00     0.048 A 
HETATM    7  C   UNL     1     -11.142  -3.000   0.000  1.00  0.00     0.051 A 
HETATM    8  C   UNL     1     -12.441  -3.750   0.000  1.00  0.00     0.047 A 
HETATM    9  N   UNL     1     -13.740  -3.000   0.000  1.00  0.00    -0.276 NA
HETATM   10  C   UNL     1     -12.441  -5.250   0.000  1.00  0.00    -0.025 A 
HETATM   11  C   UNL     1     -15.039  -3.750   0.000  1.00  0.00     0.126 A 
HETATM   12  C   UNL     1     -15.039  -5.250   0.000  1.00  0.00     0.031 A 
HETATM   13  C   UNL     1     -13.740  -6.000   0.000  1.00  0.00     0.026 A 
HETATM   14  C   UNL     1     -11.142  -6.000   0.000  1.00  0.00     0.065 A 
ENDBRANCH   1   5
BRANCH   4  15
HETATM   15  C   UNL     1      -5.946  -3.000   0.000  1.00  0.00     0.045 A 
HETATM   16  C   UNL     1      -5.946  -1.500   0.000  1.00  0.00     0.048 A 
HETATM   17  C   UNL     1      -4.647  -0.750   0.000  1.00  0.00     0.051 A 
HETATM   18  C   UNL     1      -3.348  -1.500   0.000  1.00  0.00     0.047 A 
HETATM   19  N   UNL     1      -2.049  -0.750   0.000  1.00  0.00    -0.276 NA
HETATM   20  C   UNL     1      -3.348  -3.000   0.000  1.00  0.00    -0.025 A 
HETATM   21  C   UNL     1      -0.750  -1.500   0.000  1.00  0.00     0.126 A 
HETATM   22  C   UNL     1      -0.750  -3.000   0.000  1.00  0.00     0.031 A 
HETATM   23  C   UNL     1      -2.049  -3.750   0.000  1.00  0.00     0.026 A 
HETATM   24  C   UNL     1      -4.647  -3.750   0.000  1.00  0.00     0.065 A 
ENDBRANCH   4  15
TORSDOF 2
