REMARK  2 active torsions:
REMARK  status: ('A' for Active; 'I' for Inactive)
REMARK    1  A    between atoms: C_8  and  N_18 
REMARK    2  A    between atoms: C_11  and  N_14 
REMARK       I    between atoms: N_14  and  C_19 
REMARK       I    between atoms: N_18  and  C_22 
ROOT
HETATM    1  C   UNL     1      -5.946  -0.750   0.000  1.00  0.00     0.029 A 
HETATM    2  C   UNL     1      -8.544  -0.750   0.000  1.00  0.00     0.046 A 
HETATM    3  C   UNL     1     -11.142  -0.750   0.000  1.00  0.00     0.029 A 
HETATM    4  C   UNL     1      -4.647  -1.500   0.000  1.00  0.00     0.044 A 
HETATM    5  C   UNL     1      -7.245  -1.500   0.000  1.00  0.00    -0.026 A 
HETATM    6  C   UNL     1      -9.843  -1.500   0.000  1.00  0.00    -0.026 A 
HETATM    7  C   UNL     1     -12.441  -1.500   0.000  1.00  0.00     0.044 A 
HETATM    8  C   UNL     1      -4.647  -3.000   0.000  1.00  0.00     0.019 A 
HETATM    9  C   UNL     1      -7.245  -3.000   0.000  1.00  0.00     0.057 A 
HETATM   10  C   UNL     1      -9.843  -3.000   0.000  1.00  0.00     0.057 A 
HETATM   11  C   UNL     1     -12.441  -3.000   0.000  1.00  0.00     0.019 A 
HETATM   12  C   UNL     1      -5.946  -3.750   0.000  1.00  0.00     0.084 A 
HETATM   13  C   UNL     1     -11.142  -3.750   0.000  1.00  0.00     0.084 A 
HETATM   14  N   UNL     1      -8.544  -3.750   0.000  1.00  0.00    -0.255 NA
ENDROOT
BRANCH   8  15
HETATM   15  N   UNL     1      -3.348  -3.750   0.000  1.00  0.00    -0.342 N 
HETATM   16  H   UNL     1      -3.348  -5.250   0.000  1.00  0.00     0.167 HD
HETATM   17  C   UNL     1      -2.049  -3.000   0.000  1.00  0.00     0.168 C 
HETATM   18  O   UNL     1      -2.049  -1.500   0.000  1.00  0.00    -0.176 OA
HETATM   19  C   UNL     1      -0.750  -3.750   0.000  1.00  0.00     0.081 C 
ENDBRANCH   8  15
BRANCH  11  20
HETATM   20  N   UNL     1     -13.740  -3.750   0.000  1.00  0.00    -0.342 N 
HETATM   21  H   UNL     1     -13.740  -5.250   0.000  1.00  0.00     0.167 HD
HETATM   22  C   UNL     1     -15.039  -3.000   0.000  1.00  0.00     0.168 C 
HETATM   23  O   UNL     1     -15.039  -1.500   0.000  1.00  0.00    -0.176 OA
HETATM   24  C   UNL     1     -16.338  -3.750   0.000  1.00  0.00     0.081 C 
ENDBRANCH  11  20
TORSDOF 2
