REMARK  2 active torsions:
REMARK  status: ('A' for Active; 'I' for Inactive)
REMARK    1  A    between atoms: C_13  and  C_14 
REMARK    2  A    between atoms: C_14  and  C_30 
ROOT
HETATM    1  C   UNL     1      -0.375   6.649   0.000  1.00  0.00     0.068 A 
HETATM    2  C   UNL     1      -0.375   5.149   0.000  1.00  0.00     0.115 A 
HETATM    3  C   UNL     1       0.924   4.399   0.000  1.00  0.00     0.034 A 
HETATM    4  C   UNL     1       2.223   5.149   0.000  1.00  0.00     0.066 A 
HETATM    5  C   UNL     1       2.223   6.649   0.000  1.00  0.00     0.016 A 
HETATM    6  C   UNL     1       0.924   7.399   0.000  1.00  0.00    -0.035 A 
HETATM    7  C   UNL     1       3.522   4.399   0.000  1.00  0.00     0.013 A 
HETATM    8  C   UNL     1       4.821   5.149   0.000  1.00  0.00    -0.067 A 
HETATM    9  C   UNL     1       4.821   6.649   0.000  1.00  0.00     0.014 A 
HETATM   10  C   UNL     1       3.522   7.399   0.000  1.00  0.00     0.013 A 
HETATM   11  C   UNL     1       6.120   7.399   0.000  1.00  0.00     0.006 A 
HETATM   12  C   UNL     1       6.120   8.899   0.000  1.00  0.00     0.048 A 
HETATM   13  C   UNL     1       4.821   9.649   0.000  1.00  0.00     0.122 A 
HETATM   14  C   UNL     1       3.522   8.899   0.000  1.00  0.00     0.032 A 
HETATM   15  C   UNL     1       7.419   6.649   0.000  1.00  0.00     0.033 A 
HETATM   16  C   UNL     1       8.718   7.399   0.000  1.00  0.00     0.148 A 
HETATM   17  C   UNL     1       8.718   8.899   0.000  1.00  0.00     0.106 A 
HETATM   18  C   UNL     1       7.419   9.649   0.000  1.00  0.00     0.025 A 
HETATM   19  C   UNL     1      10.017   9.649   0.000  1.00  0.00     0.263 A 
HETATM   20  C   UNL     1      10.017  11.149   0.000  1.00  0.00     0.027 A 
HETATM   21  C   UNL     1       8.718  11.899   0.000  1.00  0.00     0.017 A 
HETATM   22  C   UNL     1       7.419  11.149   0.000  1.00  0.00    -0.002 A 
HETATM   23  C   UNL     1      10.017   8.149   0.000  1.00  0.00     0.270 A 
HETATM   24  O   UNL     1      10.017   6.649   0.000  1.00  0.00    -0.334 OA
HETATM   25  C   UNL     1      -1.674   7.399   0.000  1.00  0.00     0.022 C 
HETATM   26  N   UNL     1      -2.973   8.149   0.000  1.00  0.00    -0.096 N 
HETATM   27  C   UNL     1       6.120   5.899   0.000  1.00  0.00     0.016 A 
HETATM   28  C   UNL     1      -0.040   3.250   0.000  1.00  0.00     0.006 C 
HETATM   29  C   UNL     1       1.888   3.250   0.000  1.00  0.00    -0.024 C 
HETATM   30  C   UNL     1       4.821   8.149   0.000  1.00  0.00     0.027 A 
HETATM   31  C   UNL     1       7.754  13.049   0.000  1.00  0.00     0.004 C 
HETATM   32  C   UNL     1       9.682  13.049   0.000  1.00  0.00     0.004 C 
HETATM   33  O   UNL     1      -1.674   4.399   0.000  1.00  0.00    -0.194 OA
HETATM   34  O   UNL     1       4.821  11.149   0.000  1.00  0.00    -0.227 OA
HETATM   35  C   UNL     1       2.223   8.149   0.000  1.00  0.00     0.021 A 
HETATM   36  N   UNL     1      11.316   8.899   0.000  1.00  0.00     0.052 N 
HETATM   37  C   UNL     1      12.687   8.289   0.000  1.00  0.00     0.261 A 
HETATM   38  C   UNL     1      13.690   9.404   0.000  1.00  0.00     0.326 A 
HETATM   39  N   UNL     1      12.940  10.703   0.000  1.00  0.00     0.373 N 
HETATM   40  C   UNL     1      11.473  10.391   0.000  1.00  0.00     0.430 A 
ENDROOT
TORSDOF 2
