REMARK  3 active torsions:
REMARK  status: ('A' for Active; 'I' for Inactive)
REMARK    1  A    between atoms: C_6  and  N_16 
REMARK    2  A    between atoms: C_10  and  N_19 
REMARK    3  A    between atoms: N_19  and  C_20 
ROOT
HETATM    1  O   UNL     1       5.989  -0.141   0.000  1.00  0.00    -0.163 OA
HETATM    2  O   UNL     1       7.880  -2.031   0.000  1.00  0.00    -0.304 OA
HETATM    3  C   UNL     1       6.453  -1.567   0.000  1.00  0.00     0.230 A 
HETATM    4  C   UNL     1       5.571  -2.781   0.000  1.00  0.00     0.073 A 
HETATM    5  C   UNL     1       4.079  -2.938   0.000  1.00  0.00     0.154 A 
HETATM    6  C   UNL     1       3.469  -4.308   0.000  1.00  0.00     0.140 A 
HETATM    7  C   UNL     1       6.453  -3.994   0.000  1.00  0.00     0.033 A 
HETATM    8  C   UNL     1       4.351  -5.522   0.000  1.00  0.00     0.135 A 
HETATM    9  C   UNL     1       5.843  -5.365   0.000  1.00  0.00     0.102 A 
HETATM   10  C   UNL     1       7.880  -3.531   0.000  1.00  0.00     0.179 A 
HETATM   11  O   UNL     1       1.978  -4.465   0.000  1.00  0.00    -0.324 OA
HETATM   12  C   UNL     1       1.367  -5.835   0.000  1.00  0.00     0.182 A 
HETATM   13  O   UNL     1       3.741  -6.892   0.000  1.00  0.00    -0.325 OA
HETATM   14  C   UNL     1       2.249  -7.049   0.000  1.00  0.00     0.182 A 
ENDROOT
BRANCH   5  15
HETATM   15  N   UNL     1       3.198  -1.724   0.000  1.00  0.00    -0.112 N 
HETATM   16  O   UNL     1       1.706  -1.881   0.000  1.00  0.00    -0.532 OA
HETATM   17  O   UNL     1       3.808  -0.354   0.000  1.00  0.00    -0.532 OA
ENDBRANCH   5  15
BRANCH   9  18
HETATM   18  N   UNL     1       6.724  -6.578   0.000  1.00  0.00    -0.235 NA
BRANCH  18  19
HETATM   19  C   UNL     1       6.114  -7.949   0.000  1.00  0.00     0.309 C 
HETATM   20  O   UNL     1       6.996  -9.162   0.000  1.00  0.00    -0.191 OA
ENDBRANCH  18  19
ENDBRANCH   9  18
TORSDOF 3
