REMARK  5 active torsions:
REMARK  status: ('A' for Active; 'I' for Inactive)
REMARK    1  A    between atoms: C_6  and  C_25 
REMARK    2  A    between atoms: C_7  and  C_26 
REMARK    3  A    between atoms: C_13  and  O_20 
REMARK    4  A    between atoms: C_25  and  C_26 
REMARK    5  A    between atoms: S_16  and  O_20 
ROOT
HETATM    1  N   UNL     1      -1.837  -6.426   0.000  1.00  0.00    -0.268 NA
HETATM    2  C   UNL     1      -3.136  -5.676   0.000  1.00  0.00     0.051 A 
HETATM    3  C   UNL     1      -4.435  -6.426   0.000  1.00  0.00    -0.004 A 
HETATM    4  C   UNL     1      -5.734  -5.676   0.000  1.00  0.00     0.080 A 
HETATM    5  C   UNL     1      -7.033  -6.426   0.000  1.00  0.00     0.095 A 
HETATM    6  C   UNL     1      -4.435  -7.926   0.000  1.00  0.00     0.004 A 
HETATM    7  C   UNL     1      -7.033  -7.926   0.000  1.00  0.00     0.095 A 
HETATM    8  C   UNL     1      -3.136  -8.676   0.000  1.00  0.00     0.114 A 
HETATM    9  C   UNL     1      -1.837  -7.926   0.000  1.00  0.00     0.177 A 
HETATM   10  C   UNL     1      -5.734  -8.676   0.000  1.00  0.00     0.080 A 
HETATM   11  O   UNL     1      -8.332  -5.676   0.000  1.00  0.00    -0.330 OA
HETATM   12  C   UNL     1      -9.631  -6.426   0.000  1.00  0.00     0.181 A 
HETATM   13  O   UNL     1      -8.332  -8.676   0.000  1.00  0.00    -0.330 OA
HETATM   14  C   UNL     1      -9.631  -7.926   0.000  1.00  0.00     0.181 A 
ENDROOT
BRANCH   2  15
HETATM   15  C   UNL     1      -3.136  -4.176   0.000  1.00  0.00     0.048 C 
BRANCH  15  16
HETATM   16  C   UNL     1      -1.837  -3.426   0.000  1.00  0.00     0.036 C 
BRANCH  16  17
HETATM   17  C   UNL     1      -1.837  -1.926   0.000  1.00  0.00     0.116 A 
HETATM   18  O   UNL     1      -0.623  -1.045   0.000  1.00  0.00    -0.357 OA
HETATM   19  C   UNL     1      -1.087   0.382   0.000  1.00  0.00     0.142 A 
HETATM   20  C   UNL     1      -2.587   0.382   0.000  1.00  0.00     0.035 A 
HETATM   21  C   UNL     1      -3.050  -1.045   0.000  1.00  0.00     0.032 A 
ENDBRANCH  16  17
ENDBRANCH  15  16
ENDBRANCH   2  15
BRANCH   8  22
HETATM   22  O   UNL     2      -2.579 -10.087   0.000  1.00  0.00    -0.215 OA
BRANCH  22  23
HETATM   23  S   UNL     2      -1.280 -10.837   0.000  1.00  0.00     0.256 S 
HETATM   24  O   UNL     2      -2.030 -12.136   0.000  1.00  0.00    -0.572 OA
HETATM   25  O   UNL     2       0.019 -11.587   0.000  1.00  0.00    -0.572 OA
HETATM   26  O   UNL     2      -0.530  -9.538   0.000  1.00  0.00    -0.572 OA
ENDBRANCH  22  23
ENDBRANCH   8  22
TORSDOF 5
