REMARK  2 active torsions:
REMARK  status: ('A' for Active; 'I' for Inactive)
REMARK    1  A    between atoms: C_1  and  C_7 
REMARK    2  A    between atoms: C_2  and  C_13 
ROOT
HETATM    1  C   UNL     1       2.049  -5.250   0.000  1.00  0.00     0.197 A 
HETATM    2  C   UNL     1       2.049  -8.250   0.000  1.00  0.00     0.197 A 
HETATM    3  N   UNL     1       0.750  -6.000   0.000  1.00  0.00    -0.126 NA
HETATM    4  N   UNL     1       0.750  -7.500   0.000  1.00  0.00    -0.126 NA
HETATM    5  N   UNL     1       3.348  -7.500   0.000  1.00  0.00    -0.126 NA
HETATM    6  N   UNL     1       3.348  -6.000   0.000  1.00  0.00    -0.126 NA
ENDROOT
BRANCH   1   7
HETATM    7  C   UNL     1       2.049  -3.750   0.000  1.00  0.00    -0.005 A 
HETATM    8  C   UNL     1       0.750  -3.000   0.000  1.00  0.00     0.025 A 
HETATM    9  C   UNL     1       0.750  -1.500   0.000  1.00  0.00     0.004 A 
HETATM   10  C   UNL     1       2.049  -0.750   0.000  1.00  0.00     0.001 A 
HETATM   11  C   UNL     1       3.348  -1.500   0.000  1.00  0.00     0.004 A 
HETATM   12  C   UNL     1       3.348  -3.000   0.000  1.00  0.00     0.025 A 
ENDBRANCH   1   7
BRANCH   2  13
HETATM   13  C   UNL     1       2.049  -9.750   0.000  1.00  0.00    -0.005 A 
HETATM   14  C   UNL     1       3.348 -10.500   0.000  1.00  0.00     0.025 A 
HETATM   15  C   UNL     1       3.348 -12.000   0.000  1.00  0.00     0.004 A 
HETATM   16  C   UNL     1       2.049 -12.750   0.000  1.00  0.00     0.001 A 
HETATM   17  C   UNL     1       0.750 -12.000   0.000  1.00  0.00     0.004 A 
HETATM   18  C   UNL     1       0.750 -10.500   0.000  1.00  0.00     0.025 A 
ENDBRANCH   2  13
TORSDOF 2
