REMARK  4 active torsions:
REMARK  status: ('A' for Active; 'I' for Inactive)
REMARK    1  A    between atoms: C_3  and  N_8 
REMARK       I    between atoms: N_8  and  C_9 
REMARK    2  A    between atoms: C_9  and  O_11 
REMARK    3  A    between atoms: O_11  and  C_12 
REMARK    4  A    between atoms: C_12  and  C_14 
ROOT
HETATM    1  N   UNL     1      -6.870   1.601   0.000  1.00  0.00    -0.207 NA
HETATM    2  C   UNL     1      -5.571   0.851   0.000  1.00  0.00     0.319 C 
HETATM    3  O   UNL     1      -4.272   1.601   0.000  1.00  0.00    -0.141 OA
ENDROOT
BRANCH   1   4
HETATM    4  C   UNL     1      -8.169   0.851   0.000  1.00  0.00     0.046 A 
HETATM    5  C   UNL     1      -9.468   1.601   0.000  1.00  0.00     0.042 A 
HETATM    6  C   UNL     1     -10.767   0.851   0.000  1.00  0.00     0.011 A 
HETATM    7  C   UNL     1     -10.767  -0.649   0.000  1.00  0.00     0.034 A 
HETATM    8  C   UNL     1      -9.468  -1.399   0.000  1.00  0.00     0.019 A 
HETATM    9 CL   UNL     1      -9.468  -2.900   0.000  1.00  0.00    -0.091 Cl
HETATM   10  C   UNL     1      -8.169  -0.649   0.000  1.00  0.00     0.075 A 
ENDBRANCH   1   4
BRANCH   2  11
HETATM   11  O   UNL     1      -5.571  -0.649   0.000  1.00  0.00    -0.286 OA
BRANCH  11  12
HETATM   12  C   UNL     1      -4.272  -1.399   0.000  1.00  0.00     0.211 C 
HETATM   13  C   UNL     1      -2.973  -0.649   0.000  1.00  0.00     0.044 C 
BRANCH  12  14
HETATM   14  C   UNL     1      -4.272  -2.900   0.000  1.00  0.00     0.214 C 
HETATM   15  O   UNL     1      -2.973  -3.650   0.000  1.00  0.00    -0.646 OA
HETATM   16  O   UNL     1      -5.571  -3.650   0.000  1.00  0.00    -0.646 OA
ENDBRANCH  12  14
ENDBRANCH  11  12
ENDBRANCH   2  11
TORSDOF 4
