REMARK  1 active torsions:
REMARK  status: ('A' for Active; 'I' for Inactive)
REMARK    1  A    between atoms: N_5  and  C_8 
ROOT
HETATM    1  C   UNL     1      -7.487  -6.376   0.000  1.00  0.00     0.052 A 
HETATM    2  C   UNL     1      -6.877  -7.746   0.000  1.00  0.00     0.095 A 
HETATM    3  N   UNL     1      -6.373  -5.372   0.000  1.00  0.00    -0.295 N 
HETATM    4  H   UNL     1      -6.529  -3.880   0.000  1.00  0.00     0.187 HD
HETATM    5  N   UNL     1      -5.074  -6.122   0.000  1.00  0.00    -0.240 N 
HETATM    6  C   UNL     1      -5.386  -7.589   0.000  1.00  0.00     0.193 A 
HETATM    7  O   UNL     1      -4.382  -8.704   0.000  1.00  0.00    -0.174 OA
HETATM    8  C   UNL     1      -9.615  -9.889   0.000  1.00  0.00     0.004 A 
HETATM    9  C   UNL     1      -8.865  -8.591   0.000  1.00  0.00     0.016 A 
HETATM   10  C   UNL     1      -7.365  -8.591   0.000  1.00  0.00     0.016 A 
HETATM   11  C   UNL     1      -6.615  -9.889   0.000  1.00  0.00     0.001 A 
HETATM   12  C   UNL     1      -7.365 -11.188   0.000  1.00  0.00     0.001 A 
HETATM   13  C   UNL     1      -8.865 -11.188   0.000  1.00  0.00     0.000 A 
HETATM   14  C   UNL     1      -8.115  -9.889   0.000  1.00  0.00     0.015 A 
HETATM   15  C   UNL     1      -8.955  -6.064   0.000  1.00  0.00    -0.017 A 
HETATM   16  C   UNL     1      -9.958  -7.179   0.000  1.00  0.00    -0.048 A 
HETATM   17  C   UNL     1     -11.425  -6.867   0.000  1.00  0.00     0.022 A 
HETATM   18  C   UNL     1     -11.889  -5.440   0.000  1.00  0.00     0.005 A 
HETATM   19  C   UNL     1     -10.885  -4.325   0.000  1.00  0.00     0.005 A 
HETATM   20  C   UNL     1      -9.418  -4.637   0.000  1.00  0.00     0.027 A 
ENDROOT
BRANCH   5  21
HETATM   21  C   UNL     1      -3.703  -5.512   0.000  1.00  0.00     0.042 A 
HETATM   22  C   UNL     1      -3.546  -4.020   0.000  1.00  0.00     0.065 A 
HETATM   23  C   UNL     1      -2.176  -3.410   0.000  1.00  0.00     0.103 A 
HETATM   24  N   UNL     1      -0.963  -4.292   0.000  1.00  0.00    -0.366 N 
HETATM   25  C   UNL     1      -1.119  -5.784   0.000  1.00  0.00     0.103 A 
HETATM   26  C   UNL     1       0.408  -3.682   0.000  1.00  0.00     0.121 C 
HETATM   27  C   UNL     1      -2.490  -6.394   0.000  1.00  0.00     0.065 A 
ENDBRANCH   5  21
TORSDOF 1
