REMARK  0 active torsions:
REMARK  status: ('A' for Active; 'I' for Inactive)
ROOT
HETATM    1  O   UNL     1       2.339   2.542   0.000  1.00  0.00    -0.151 OA
HETATM    2  N   UNL     1       3.635   0.291   0.000  1.00  0.00    -0.270 N 
HETATM    3  N   UNL     1       4.937   2.539   0.000  1.00  0.00    -0.304 N 
HETATM    4  H   UNL     1       4.939   4.039   0.000  1.00  0.00     0.171 HD
HETATM    5  O   UNL     1       4.931  -1.961   0.000  1.00  0.00    -0.171 OA
HETATM    6  N   UNL     1       7.663   2.249   0.000  1.00  0.00    -0.249 N 
HETATM    7  N   UNL     1       8.543   1.034   0.000  1.00  0.00    -0.244 N 
HETATM    8  C   UNL     1       3.637   1.791   0.000  1.00  0.00     0.262 A 
HETATM    9  C   UNL     1       6.235   1.787   0.000  1.00  0.00     0.144 A 
HETATM   10  C   UNL     1       6.233   0.287   0.000  1.00  0.00     0.098 A 
HETATM   11  C   UNL     1       4.933  -0.461   0.000  1.00  0.00     0.202 A 
HETATM   12  C   UNL     1       7.659  -0.178   0.000  1.00  0.00     0.136 A 
HETATM   13  C   UNL     1       2.335  -0.458   0.000  1.00  0.00     0.136 C 
HETATM   14  C   UNL     1       8.128   3.675   0.000  1.00  0.00     0.154 C 
HETATM   15  C   UNL     1       8.121  -1.605   0.000  1.00  0.00     0.247 A 
HETATM   16  O   UNL     1       7.116  -2.719   0.000  1.00  0.00    -0.162 OA
HETATM   17  O   UNL     1       9.588  -1.919   0.000  1.00  0.00    -0.301 OA
HETATM   18  C   UNL     1      10.593  -0.806   0.000  1.00  0.00     0.198 A 
HETATM   19  C   UNL     1      10.131   0.621   0.000  1.00  0.00     0.105 A 
ENDROOT
TORSDOF 0
