REMARK  0 active torsions:
REMARK  status: ('A' for Active; 'I' for Inactive)
ROOT
HETATM    1  C   UNL     1      -6.120  -4.399   0.000  1.00  0.00     0.005 A 
HETATM    2  C   UNL     1      -6.120  -5.899   0.000  1.00  0.00     0.005 A 
HETATM    3  C   UNL     1      -4.821  -3.650   0.000  1.00  0.00     0.025 A 
HETATM    4  C   UNL     1      -4.821  -6.649   0.000  1.00  0.00     0.024 A 
HETATM    5  C   UNL     1      -3.522  -4.399   0.000  1.00  0.00    -0.031 A 
HETATM    6  C   UNL     1      -3.522  -5.899   0.000  1.00  0.00    -0.024 A 
HETATM    7  C   UNL     1      -2.223  -3.650   0.000  1.00  0.00    -0.013 A 
HETATM    8  C   UNL     1      -2.223  -2.150   0.000  1.00  0.00     0.027 A 
HETATM    9  C   UNL     1      -2.223  -6.649   0.000  1.00  0.00     0.147 A 
HETATM   10  N   UNL     1      -0.924  -5.899   0.000  1.00  0.00    -0.271 NA
HETATM   11  C   UNL     1      -0.924  -4.399   0.000  1.00  0.00     0.050 A 
HETATM   12  C   UNL     1      -0.924  -1.399   0.000  1.00  0.00     0.005 A 
HETATM   13  C   UNL     1       0.375  -2.150   0.000  1.00  0.00     0.007 A 
HETATM   14  C   UNL     1       0.375  -3.650   0.000  1.00  0.00     0.045 A 
ENDROOT
TORSDOF 0
