REMARK  3 active torsions:
REMARK  status: ('A' for Active; 'I' for Inactive)
REMARK    1  A    between atoms: C_2  and  C_6 
REMARK    2  A    between atoms: C_17  and  C_34 
REMARK    3  A    between atoms: C_22  and  C_25 
ROOT
HETATM    1  C   UNL     1      -9.000  -3.348   0.000  1.00  0.00     0.049 A 
HETATM    2  C   UNL     1      -9.750  -4.647   0.000  1.00  0.00    -0.047 A 
HETATM    3  C   UNL     1      -7.500  -3.348   0.000  1.00  0.00    -0.007 A 
HETATM    4  C   UNL     1      -6.750  -4.647   0.000  1.00  0.00     0.055 A 
HETATM    5  C   UNL     1      -9.000  -5.946   0.000  1.00  0.00     0.028 A 
HETATM    6  C   UNL     1      -7.500  -5.946   0.000  1.00  0.00     0.050 A 
HETATM    7  C   UNL     1      -5.250  -2.049   0.000  1.00  0.00    -0.007 A 
HETATM    8  C   UNL     1      -4.500  -3.348   0.000  1.00  0.00     0.079 A 
HETATM    9  C   UNL     1      -4.500  -0.750   0.000  1.00  0.00     0.028 A 
HETATM   10  C   UNL     1      -3.000  -0.750   0.000  1.00  0.00     0.010 A 
HETATM   11  C   UNL     1      -3.000  -3.348   0.000  1.00  0.00     0.059 A 
HETATM   12  C   UNL     1      -2.250  -2.049   0.000  1.00  0.00     0.034 A 
HETATM   13  O   UNL     1      -6.750  -2.049   0.000  1.00  0.00     0.000 OA
HETATM   14  C   UNL     1      -7.500  -0.750   0.000  1.00  0.00     0.000 C 
HETATM   15  N   UNL     1      -5.250  -4.647   0.000  1.00  0.00    -0.251 NA
ENDROOT
BRANCH   2  16
HETATM   16  C   UNL     1     -11.250  -4.647   0.000  1.00  0.00    -0.047 A 
HETATM   17  C   UNL     1     -12.000  -3.348   0.000  1.00  0.00     0.049 A 
HETATM   18  C   UNL     1     -13.500  -3.348   0.000  1.00  0.00    -0.007 A 
HETATM   19  C   UNL     1     -14.250  -4.647   0.000  1.00  0.00     0.055 A 
HETATM   20  O   UNL     1     -14.250  -2.049   0.000  1.00  0.00     0.000 OA
HETATM   21  C   UNL     1     -13.500  -5.946   0.000  1.00  0.00     0.050 A 
HETATM   22  N   UNL     1     -15.750  -4.647   0.000  1.00  0.00    -0.251 NA
HETATM   23  C   UNL     1     -12.000  -5.946   0.000  1.00  0.00     0.028 A 
HETATM   24  C   UNL     1     -16.500  -3.348   0.000  1.00  0.00     0.079 A 
HETATM   25  C   UNL     1     -15.750  -2.049   0.000  1.00  0.00    -0.007 A 
HETATM   26  C   UNL     1     -18.000  -3.348   0.000  1.00  0.00     0.059 A 
HETATM   27  C   UNL     1     -16.500  -0.750   0.000  1.00  0.00     0.028 A 
HETATM   28  C   UNL     1     -18.000  -0.750   0.000  1.00  0.00     0.010 A 
HETATM   29  C   UNL     1     -18.750  -2.049   0.000  1.00  0.00     0.034 A 
HETATM   30  C   UNL     1     -13.500  -0.750   0.000  1.00  0.00     0.000 C 
BRANCH  26  31
HETATM   31  C   UNL     1     -18.750  -4.647   0.000  1.00  0.00     0.208 C 
HETATM   32  O   UNL     1     -18.000  -5.946   0.000  1.00  0.00    -0.644 OA
HETATM   33  O   UNL     1     -20.250  -4.647   0.000  1.00  0.00    -0.644 OA
ENDBRANCH  26  31
ENDBRANCH   2  16
BRANCH  11  34
HETATM   34  C   UNL     1      -2.250  -4.647   0.000  1.00  0.00     0.208 C 
HETATM   35  O   UNL     1      -3.000  -5.946   0.000  1.00  0.00    -0.644 OA
HETATM   36  O   UNL     1      -0.750  -4.647   0.000  1.00  0.00    -0.644 OA
ENDBRANCH  11  34
TORSDOF 3
