REMARK  2 active torsions:
REMARK  status: ('A' for Active; 'I' for Inactive)
REMARK    1  A    between atoms: C_8  and  O_9 
REMARK    2  A    between atoms: O_9  and  C_10 
ROOT
HETATM    1  O   UNL     1       4.024   4.922   0.000  1.00  0.00    -0.309 OA
ENDROOT
BRANCH   1   2
HETATM    2  C   UNL     1       2.525   4.922   0.000  1.00  0.00     0.085 A 
HETATM    3  C   UNL     1       1.774   6.221   0.000  1.00  0.00     0.057 A 
HETATM    4  C   UNL     1       0.275   6.221   0.000  1.00  0.00     0.041 A 
HETATM    5  C   UNL     1      -0.475   4.922   0.000  1.00  0.00     0.019 A 
HETATM    6 CL   UNL     1      -1.976   4.922   0.000  1.00  0.00    -0.091 Cl
HETATM    7  C   UNL     1       0.275   3.623   0.000  1.00  0.00     0.073 A 
HETATM    8  C   UNL     1       1.774   3.623   0.000  1.00  0.00     0.059 A 
HETATM    9 CL   UNL     1       2.525   2.324   0.000  1.00  0.00    -0.085 Cl
ENDBRANCH   1   2
BRANCH   1  10
HETATM   10  C   UNL     1       4.774   6.221   0.000  1.00  0.00     0.145 A 
HETATM   11  C   UNL     1       4.024   7.520   0.000  1.00  0.00     0.183 A 
HETATM   12  N   UNL     1       4.774   8.819   0.000  1.00  0.00    -0.236 NA
HETATM   13  C   UNL     1       6.274   8.819   0.000  1.00  0.00     0.219 A 
HETATM   14  N   UNL     1       7.024   7.520   0.000  1.00  0.00    -0.190 NA
HETATM   15  S   UNL     1       7.024  10.118   0.000  1.00  0.00    -0.037 SA
HETATM   16  C   UNL     1       6.274   6.221   0.000  1.00  0.00     0.235 A 
HETATM   17  O   UNL     1       7.024   4.922   0.000  1.00  0.00    -0.167 OA
ENDBRANCH   1  10
TORSDOF 2
