REMARK  6 active torsions:
REMARK  status: ('A' for Active; 'I' for Inactive)
REMARK    1  A    between atoms: C_12  and  N_14 
REMARK    2  A    between atoms: N_14  and  C_15 
REMARK    3  A    between atoms: C_15  and  C_16 
REMARK    4  A    between atoms: C_16  and  N_17 
REMARK    5  A    between atoms: N_17  and  C_18 
REMARK    6  A    between atoms: N_17  and  C_20 
ROOT
HETATM    1 CL   UNL     1      -8.262  -2.315   0.000  1.00  0.00    -0.081 Cl
HETATM    2 CL   UNL     1      -7.253  -5.419   0.000  1.00  0.00    -0.081 Cl
HETATM    3 CL   UNL     1      -5.622  -0.397   0.000  1.00  0.00    -0.015 Cl
HETATM    4 CL   UNL     1      -3.990  -5.419   0.000  1.00  0.00    -0.081 Cl
HETATM    5  C   UNL     1      -5.622  -1.897   0.000  1.00  0.00     0.084 A 
HETATM    6  C   UNL     1      -4.408  -2.779   0.000  1.00  0.00     0.038 A 
HETATM    7  C   UNL     1      -6.835  -2.779   0.000  1.00  0.00     0.081 A 
HETATM    8  C   UNL     1      -4.872  -4.205   0.000  1.00  0.00     0.071 A 
HETATM    9  C   UNL     1      -6.372  -4.205   0.000  1.00  0.00     0.080 A 
HETATM   10  C   UNL     1      -2.982  -2.315   0.000  1.00  0.00     0.101 A 
HETATM   11 CL   UNL     1      -1.867  -3.319   0.000  1.00  0.00    -0.079 Cl
HETATM   12  C   UNL     1      -2.670  -0.848   0.000  1.00  0.00     0.203 A 
HETATM   13  O   UNL     1      -3.785   0.155   0.000  1.00  0.00    -0.231 OA
ENDROOT
BRANCH  12  14
HETATM   14  N   UNL     1      -1.243  -0.385   0.000  1.00  0.00    -0.245 NA
BRANCH  14  15
HETATM   15  C   UNL     1      -0.129  -1.388   0.000  1.00  0.00     0.152 C 
BRANCH  15  16
HETATM   16  C   UNL     1       1.298  -0.925   0.000  1.00  0.00     0.124 C 
BRANCH  16  17
HETATM   17  N   UNL     1       2.413  -1.929   0.000  1.00  0.00    -0.367 N 
BRANCH  17  18
HETATM   18  C   UNL     1       3.839  -1.465   0.000  1.00  0.00     0.097 C 
HETATM   19  C   UNL     1       4.954  -2.469   0.000  1.00  0.00     0.026 C 
ENDBRANCH  17  18
BRANCH  17  20
HETATM   20  C   UNL     1       2.101  -3.396   0.000  1.00  0.00     0.097 C 
HETATM   21  C   UNL     1       3.216  -4.399   0.000  1.00  0.00     0.026 C 
ENDBRANCH  17  20
ENDBRANCH  16  17
ENDBRANCH  15  16
ENDBRANCH  14  15
ENDBRANCH  12  14
TORSDOF 6
