REMARK  2 active torsions:
REMARK  status: ('A' for Active; 'I' for Inactive)
REMARK    1  A    between atoms: C_3  and  C_7 
REMARK    2  A    between atoms: C_13  and  C_14 
ROOT
HETATM    1 BR   UNL     1      -7.520   3.475   0.000  1.00  0.00    -0.058 Br
HETATM    2  C   UNL     1      -6.221  -0.275   0.000  1.00  0.00    -0.000 A 
HETATM    3  C   UNL     1      -6.221   1.226   0.000  1.00  0.00     0.057 A 
HETATM    4  C   UNL     1      -7.520   1.976   0.000  1.00  0.00    -0.001 A 
HETATM    5  C   UNL     1      -7.520  -1.024   0.000  1.00  0.00     0.126 A 
HETATM    6  C   UNL     1      -8.819   1.226   0.000  1.00  0.00     0.061 A 
HETATM    7  C   UNL     1      -8.819  -0.275   0.000  1.00  0.00     0.046 A 
HETATM    8  O   UNL     1      -7.520  -2.525   0.000  1.00  0.00    -0.191 OA
ENDROOT
BRANCH   2   9
HETATM    9  C   UNL     1      -4.922  -1.024   0.000  1.00  0.00    -0.046 A 
HETATM   10  C   UNL     1      -3.623  -0.275   0.000  1.00  0.00     0.022 A 
HETATM   11  C   UNL     1      -2.324  -1.024   0.000  1.00  0.00     0.004 A 
HETATM   12  C   UNL     1      -2.324  -2.525   0.000  1.00  0.00     0.001 A 
HETATM   13  C   UNL     1      -3.623  -3.275   0.000  1.00  0.00     0.004 A 
HETATM   14  C   UNL     1      -4.922  -2.525   0.000  1.00  0.00     0.022 A 
ENDBRANCH   2   9
BRANCH   7  15
HETATM   15  C   UNL     1     -10.118  -1.024   0.000  1.00  0.00     0.199 C 
HETATM   16  O   UNL     1     -11.417  -0.275   0.000  1.00  0.00    -0.175 OA
HETATM   17  N   UNL     1     -10.118  -2.525   0.000  1.00  0.00    -0.071 NA
ENDBRANCH   7  15
TORSDOF 2
