REMARK  4 active torsions:
REMARK  status: ('A' for Active; 'I' for Inactive)
REMARK    1  A    between atoms: C_3  and  N_17 
REMARK    2  A    between atoms: C_4  and  C_18 
REMARK    3  A    between atoms: C_9  and  S_14 
REMARK    4  A    between atoms: S_14  and  N_17 
ROOT
HETATM    1  N   UNL     1       2.498   6.924   0.000  1.00  0.00    -0.171 NA
ENDROOT
BRANCH   1   2
HETATM    2  C   UNL     1       2.498   8.424   0.000  1.00  0.00     0.049 A 
HETATM    3  C   UNL     1       1.198   9.174   0.000  1.00  0.00     0.042 A 
HETATM    4  C   UNL     1       1.198  10.674   0.000  1.00  0.00     0.006 A 
HETATM    5  C   UNL     1       2.498  11.424   0.000  1.00  0.00     0.001 A 
HETATM    6  C   UNL     1       3.797  10.674   0.000  1.00  0.00     0.006 A 
HETATM    7  C   UNL     1       3.797   9.174   0.000  1.00  0.00     0.042 A 
BRANCH   5   8
HETATM    8  C   UNL     1       2.498  12.924   0.000  1.00  0.00     0.000 C 
HETATM    9  C   UNL     1       3.998  12.924   0.000  1.00  0.00     0.000 C 
HETATM   10  C   UNL     1       0.998  12.924   0.000  1.00  0.00     0.000 C 
HETATM   11  C   UNL     1       2.498  14.424   0.000  1.00  0.00     0.000 C 
ENDBRANCH   5   8
ENDBRANCH   1   2
BRANCH   1  12
HETATM   12  S   UNL     1       1.199   6.174   0.000  1.00  0.00     0.263 S 
HETATM   13  O   UNL     1       1.948   4.875   0.000  1.00  0.00    -0.203 OA
HETATM   14  O   UNL     1       0.449   7.473   0.000  1.00  0.00    -0.203 OA
BRANCH  12  15
HETATM   15  C   UNL     1      -0.101   5.424   0.000  1.00  0.00     0.130 A 
HETATM   16  C   UNL     1      -1.399   6.174   0.000  1.00  0.00     0.020 A 
HETATM   17  C   UNL     1      -2.699   5.424   0.000  1.00  0.00     0.040 A 
HETATM   18  C   UNL     1      -2.699   3.924   0.000  1.00  0.00     0.302 A 
HETATM   19  C   UNL     1      -1.399   3.174   0.000  1.00  0.00     0.040 A 
HETATM   20  N   UNL     1      -3.998   3.174   0.000  1.00  0.00     0.616 N 
HETATM   21  C   UNL     1      -0.101   3.924   0.000  1.00  0.00     0.020 A 
ENDBRANCH  12  15
ENDBRANCH   1  12
TORSDOF 4
