REMARK  4 active torsions:
REMARK  status: ('A' for Active; 'I' for Inactive)
REMARK    1  A    between atoms: C_11  and  O_42 
REMARK    2  A    between atoms: C_24  and  O_39 
REMARK    3  A    between atoms: C_29  and  C_37 
REMARK    4  A    between atoms: C_37  and  O_39 
ROOT
HETATM    1  O   UNL     1      14.432   3.449   0.000  1.00  0.00     0.000 OA
HETATM    2  N   UNL     1      18.728   8.569   0.000  1.00  0.00    -0.375 N 
HETATM    3  C   UNL     1      20.027  10.819   0.000  1.00  0.00     0.022 A 
HETATM    4  C   UNL     1      21.326  10.069   0.000  1.00  0.00     0.003 A 
HETATM    5  C   UNL     1      18.728  10.069   0.000  1.00  0.00     0.097 A 
HETATM    6  C   UNL     1      21.326   8.569   0.000  1.00  0.00     0.016 A 
HETATM    7  C   UNL     1      20.027   7.819   0.000  1.00  0.00     0.132 A 
HETATM    8  C   UNL     1      20.027   6.319   0.000  1.00  0.00     0.143 A 
HETATM    9  C   UNL     1      18.728   5.569   0.000  1.00  0.00     0.073 A 
HETATM   10  C   UNL     1      17.429   6.319   0.000  1.00  0.00     0.049 A 
HETATM   11  C   UNL     1      17.429   7.819   0.000  1.00  0.00     0.091 A 
HETATM   12  C   UNL     1      16.130   5.569   0.000  1.00  0.00    -0.004 A 
HETATM   13  C   UNL     1      18.728   4.069   0.000  1.00  0.00     0.106 A 
HETATM   14  C   UNL     1      16.130   4.069   0.000  1.00  0.00     0.018 A 
HETATM   15  C   UNL     1      14.704   6.033   0.000  1.00  0.00    -0.020 A 
HETATM   16  C   UNL     1      13.822   4.819   0.000  1.00  0.00    -0.009 A 
HETATM   17  C   UNL     1      17.429   3.319   0.000  1.00  0.00    -0.004 A 
HETATM   18  C   UNL     1      14.704   3.606   0.000  1.00  0.00     0.058 A 
HETATM   19  C   UNL     1      12.330   4.662   0.000  1.00  0.00    -0.004 A 
HETATM   20  C   UNL     1      11.448   5.876   0.000  1.00  0.00     0.002 A 
HETATM   21  C   UNL     1       9.957   5.719   0.000  1.00  0.00     0.033 A 
HETATM   22  C   UNL     1      14.094   2.235   0.000  1.00  0.00    -0.005 A 
HETATM   23  C   UNL     1      11.720   3.292   0.000  1.00  0.00     0.052 A 
HETATM   24  C   UNL     1       9.347   4.349   0.000  1.00  0.00     0.153 A 
HETATM   25  C   UNL     1      12.602   2.079   0.000  1.00  0.00    -0.004 A 
HETATM   26  C   UNL     1      10.228   3.135   0.000  1.00  0.00     0.174 A 
HETATM   27  O   UNL     1       9.598   1.774   0.000  1.00  0.00    -0.221 OA
HETATM   28  C   UNL     1      12.940   6.033   0.000  1.00  0.00    -0.005 A 
HETATM   29  O   UNL     1      15.973   7.061   0.000  1.00  0.00     0.000 OA
HETATM   30  O   UNL     1      15.973   2.578   0.000  1.00  0.00     0.000 OA
HETATM   31  O   UNL     1      18.728   7.069   0.000  1.00  0.00     0.000 OA
HETATM   32  C   UNL     1      20.027  12.319   0.000  1.00  0.00     0.002 C 
HETATM   33  O   UNL     1      20.027   3.319   0.000  1.00  0.00    -0.195 OA
HETATM   34  O   UNL     1      21.505   6.580   0.000  1.00  0.00    -0.224 OA
HETATM   35  C   UNL     1      20.540   4.910   0.000  1.00  0.00     0.035 C 
ENDROOT
BRANCH  24  36
HETATM   36  O   UNL     1       7.855   4.192   0.000  1.00  0.00    -0.309 OA
BRANCH  36  37
HETATM   37  C   UNL     1       6.973   5.406   0.000  1.00  0.00     0.221 C 
HETATM   38  O   UNL     1       7.583   6.776   0.000  1.00  0.00    -0.164 OA
BRANCH  37  39
HETATM   39  C   UNL     1       5.481   5.249   0.000  1.00  0.00     0.011 A 
HETATM   40  C   UNL     1       4.600   6.462   0.000  1.00  0.00     0.079 A 
HETATM   41  C   UNL     1       3.108   6.306   0.000  1.00  0.00     0.094 A 
HETATM   42  C   UNL     1       2.498   4.935   0.000  1.00  0.00     0.090 A 
HETATM   43  O   UNL     1       2.226   7.519   0.000  1.00  0.00    -0.330 OA
HETATM   44  C   UNL     1       3.380   3.722   0.000  1.00  0.00     0.057 A 
HETATM   45  O   UNL     1       1.006   4.778   0.000  1.00  0.00    -0.331 OA
HETATM   46  C   UNL     1       4.871   3.878   0.000  1.00  0.00     0.033 A 
HETATM   47  C   UNL     1       0.124   5.992   0.000  1.00  0.00     0.181 A 
HETATM   48  C   UNL     1       0.734   7.362   0.000  1.00  0.00     0.181 A 
ENDBRANCH  37  39
ENDBRANCH  36  37
ENDBRANCH  24  36
TORSDOF 4
