REMARK  2 active torsions:
REMARK  status: ('A' for Active; 'I' for Inactive)
REMARK    1  A    between atoms: C_4  and  C_13 
REMARK    2  A    between atoms: C_9  and  C_13 
ROOT
HETATM    1  C   UNL     1      -4.647  -2.250   0.000  1.00  0.00     0.134 C 
HETATM    2  O   UNL     1      -4.647  -0.750   0.000  1.00  0.00    -0.190 OA
ENDROOT
BRANCH   1   3
HETATM    3  C   UNL     1      -3.348  -3.000   0.000  1.00  0.00    -0.018 A 
HETATM    4  C   UNL     1      -2.049  -2.250   0.000  1.00  0.00     0.024 A 
HETATM    5  C   UNL     1      -0.750  -3.000   0.000  1.00  0.00     0.004 A 
HETATM    6  C   UNL     1      -0.750  -4.500   0.000  1.00  0.00     0.001 A 
HETATM    7  C   UNL     1      -2.049  -5.250   0.000  1.00  0.00     0.004 A 
HETATM    8  C   UNL     1      -3.348  -4.500   0.000  1.00  0.00     0.024 A 
ENDBRANCH   1   3
BRANCH   1   9
HETATM    9  C   UNL     1      -5.946  -3.000   0.000  1.00  0.00     0.055 A 
HETATM   10  N   UNL     1      -7.316  -2.390   0.000  1.00  0.00    -0.375 N 
HETATM   11  H   UNL     1      -7.628  -0.923   0.000  1.00  0.00     0.160 HD
HETATM   12  C   UNL     1      -8.320  -3.505   0.000  1.00  0.00     0.098 A 
HETATM   13  C   UNL     1      -7.570  -4.804   0.000  1.00  0.00     0.030 A 
HETATM   14  C   UNL     1      -6.103  -4.492   0.000  1.00  0.00     0.047 A 
ENDBRANCH   1   9
TORSDOF 2
