REMARK  1 active torsions:
REMARK  status: ('A' for Active; 'I' for Inactive)
REMARK    1  A    between atoms: N_4  and  C_7 
ROOT
HETATM    1  C   UNL     1      -3.263   2.177   0.000  1.00  0.00     0.125 A 
HETATM    2  C   UNL     1      -1.299   0.750   0.000  1.00  0.00     0.122 A 
HETATM    3  C   UNL     1      -2.799   0.750   0.000  1.00  0.00     0.081 A 
HETATM    4  N   UNL     1      -2.049   3.058   0.000  1.00  0.00    -0.254 N 
HETATM    5  N   UNL     1      -0.836   2.177   0.000  1.00  0.00    -0.117 NA
HETATM    6  N   UNL     1      -4.689   2.640   0.000  1.00  0.00    -0.085 NA
ENDROOT
BRANCH   4   7
HETATM    7  C   UNL     1      -2.049   4.558   0.000  1.00  0.00     0.034 A 
HETATM    8  C   UNL     1      -3.348   5.308   0.000  1.00  0.00     0.041 A 
HETATM    9  C   UNL     1      -3.348   6.808   0.000  1.00  0.00     0.006 A 
HETATM   10  C   UNL     1      -2.049   7.558   0.000  1.00  0.00     0.001 A 
HETATM   11  C   UNL     1      -0.750   6.808   0.000  1.00  0.00     0.006 A 
HETATM   12  C   UNL     1      -0.750   5.308   0.000  1.00  0.00     0.041 A 
ENDBRANCH   4   7
TORSDOF 1
