REMARK  0 active torsions:
REMARK  status: ('A' for Active; 'I' for Inactive)
ROOT
HETATM    1  H   UNL     1      -0.946   3.139   0.000  1.00  0.00     0.155 HD
HETATM    2  N   UNL     1       0.353   3.889   0.000  1.00  0.00    -0.393 N 
HETATM    3  C   UNL     1       2.951   5.389   0.000  1.00  0.00     0.144 A 
HETATM    4  C   UNL     1       1.652   6.139   0.000  1.00  0.00     0.054 A 
HETATM    5  C   UNL     1       0.353   5.389   0.000  1.00  0.00     0.096 A 
HETATM    6  C   UNL     1       2.951   3.889   0.000  1.00  0.00     0.054 A 
HETATM    7  C   UNL     1       1.652   3.139   0.000  1.00  0.00     0.096 A 
HETATM    8  N   UNL     1       3.464   6.798   0.000  1.00  0.00    -0.266 NA
HETATM    9  C   UNL     1       4.941   7.059   0.000  1.00  0.00     0.248 A 
HETATM   10  C   UNL     1       4.428   5.128   0.000  1.00  0.00     0.207 A 
HETATM   11  O   UNL     1       4.941   3.719   0.000  1.00  0.00    -0.172 OA
HETATM   12  N   UNL     1       5.392   6.277   0.000  1.00  0.00    -0.222 NA
ENDROOT
TORSDOF 0
