REMARK  3 active torsions:
REMARK  status: ('A' for Active; 'I' for Inactive)
REMARK    1  A    between atoms: C_7  and  N_18 
REMARK    2  A    between atoms: C_15  and  N_17 
REMARK    3  A    between atoms: N_17  and  N_18 
ROOT
HETATM    1  H   UNL     1       0.275   7.024   0.000  1.00  0.00     0.184 HD
HETATM    2  N   UNL     1       0.275   5.524   0.000  1.00  0.00    -0.194 N 
HETATM    3  O   UNL     1       0.275   1.024   0.000  1.00  0.00    -0.175 OA
HETATM    4  N   UNL     1       1.574   3.275   0.000  1.00  0.00    -0.167 N 
HETATM    5  H   UNL     1       2.873   2.525   0.000  1.00  0.00     0.186 HD
HETATM    6  C   UNL     1      -1.024   4.774   0.000  1.00  0.00     0.036 A 
HETATM    7  C   UNL     1      -1.024   3.275   0.000  1.00  0.00     0.113 A 
HETATM    8  C   UNL     1       0.275   2.525   0.000  1.00  0.00     0.188 A 
HETATM    9  C   UNL     1       1.574   4.774   0.000  1.00  0.00     0.724 A 
HETATM   10  C   UNL     1      -2.324   5.524   0.000  1.00  0.00     0.046 C 
ENDROOT
BRANCH   9  11
HETATM   11  N   UNL     1       2.873   5.524   0.000  1.00  0.00     0.042 NA
BRANCH  11  12
HETATM   12  N   UNL     1       2.873   7.024   0.000  1.00  0.00    -0.138 NA
BRANCH  12  13
HETATM   13  C   UNL     1       4.172   7.774   0.000  1.00  0.00     0.073 A 
HETATM   14  C   UNL     1       4.172   9.274   0.000  1.00  0.00     0.047 A 
HETATM   15  C   UNL     1       5.471  10.024   0.000  1.00  0.00     0.007 A 
HETATM   16  C   UNL     1       6.770   9.274   0.000  1.00  0.00     0.005 A 
HETATM   17  C   UNL     1       6.770   7.774   0.000  1.00  0.00     0.023 A 
HETATM   18  C   UNL     1       5.471   7.024   0.000  1.00  0.00    -0.029 A 
HETATM   19  C   UNL     1       5.471   5.524   0.000  1.00  0.00     0.028 C 
ENDBRANCH  12  13
ENDBRANCH  11  12
ENDBRANCH   9  11
TORSDOF 3
