REMARK  6 active torsions:
REMARK  status: ('A' for Active; 'I' for Inactive)
REMARK    1  A    between atoms: N_2  and  C_18 
REMARK    2  A    between atoms: C_16  and  N_23 
REMARK    3  A    between atoms: N_23  and  C_24 
REMARK    4  A    between atoms: N_23  and  C_29 
REMARK    5  A    between atoms: C_24  and  C_25 
REMARK    6  A    between atoms: C_28  and  C_29 
ROOT
HETATM    1  C   UNL     1      -4.774   1.024   0.000  1.00  0.00     0.077 A 
HETATM    2  C   UNL     1      -3.275   1.024   0.000  1.00  0.00     0.052 A 
HETATM    3  C   UNL     1      -5.524  -0.275   0.000  1.00  0.00     0.014 A 
HETATM    4  C   UNL     1      -2.525  -0.275   0.000  1.00  0.00     0.013 A 
HETATM    5  C   UNL     1      -4.774  -1.574   0.000  1.00  0.00     0.031 A 
HETATM    6  C   UNL     1      -3.275  -1.574   0.000  1.00  0.00     0.044 A 
HETATM    7  C   UNL     1      -7.774   1.024   0.000  1.00  0.00     0.099 A 
HETATM    8  C   UNL     1      -7.024   2.324   0.000  1.00  0.00     0.245 A 
HETATM    9  O   UNL     1      -5.524   2.324   0.000  1.00  0.00    -0.287 OA
HETATM   10  O   UNL     1      -7.774   3.623   0.000  1.00  0.00    -0.162 OA
HETATM   11  C   UNL     1      -7.024  -0.275   0.000  1.00  0.00     0.078 A 
ENDROOT
BRANCH   7  12
HETATM   12  N   UNL     1      -9.274   1.024   0.000  1.00  0.00    -0.264 N 
HETATM   13  C   UNL     1     -10.156   2.238   0.000  1.00  0.00     0.195 A 
HETATM   14  O   UNL     1      -9.693   3.665   0.000  1.00  0.00    -0.171 OA
HETATM   15  C   UNL     1     -11.583   1.774   0.000  1.00  0.00     0.020 A 
HETATM   16  C   UNL     1     -11.583   0.275   0.000  1.00  0.00     0.020 A 
HETATM   17  C   UNL     1     -12.882   2.525   0.000  1.00  0.00     0.030 A 
HETATM   18  C   UNL     1     -10.156  -0.189   0.000  1.00  0.00     0.195 A 
HETATM   19  C   UNL     1     -12.882  -0.475   0.000  1.00  0.00     0.030 A 
HETATM   20  O   UNL     1      -9.693  -1.616   0.000  1.00  0.00    -0.171 OA
HETATM   21  C   UNL     1     -14.181   0.275   0.000  1.00  0.00     0.005 A 
HETATM   22  C   UNL     1     -14.181   1.774   0.000  1.00  0.00     0.005 A 
ENDBRANCH   7  12
BRANCH   5  23
HETATM   23  N   UNL     1      -5.524  -2.873   0.000  1.00  0.00    -0.347 N 
BRANCH  23  24
HETATM   24  C   UNL     1      -7.024  -2.873   0.000  1.00  0.00     0.137 C 
BRANCH  24  25
HETATM   25  C   UNL     1      -7.774  -4.172   0.000  1.00  0.00     0.206 C 
HETATM   26  O   UNL     1      -9.274  -4.172   0.000  1.00  0.00    -0.219 OA
ENDBRANCH  24  25
ENDBRANCH  23  24
BRANCH  23  27
HETATM   27  C   UNL     1      -4.774  -4.172   0.000  1.00  0.00     0.137 C 
BRANCH  27  28
HETATM   28  C   UNL     1      -5.524  -5.471   0.000  1.00  0.00     0.206 C 
HETATM   29  O   UNL     1      -4.774  -6.770   0.000  1.00  0.00    -0.219 OA
ENDBRANCH  27  28
ENDBRANCH  23  27
ENDBRANCH   5  23
TORSDOF 6
