REMARK  2 active torsions:
REMARK  status: ('A' for Active; 'I' for Inactive)
REMARK    1  A    between atoms: C_8  and  C_10 
REMARK    2  A    between atoms: C_15  and  C_16 
ROOT
HETATM    1  N   UNL     1       5.571  -3.650   0.000  1.00  0.00    -0.209 NA
HETATM    2  N   UNL     1       6.870  -1.399   0.000  1.00  0.00    -0.041 NA
HETATM    3  N   UNL     1       8.169  -3.650   0.000  1.00  0.00    -0.109 N 
HETATM    4  N   UNL     1       9.596  -1.686   0.000  1.00  0.00     0.046 NA
HETATM    5  N   UNL     1      10.477  -2.900   0.000  1.00  0.00    -0.118 NA
HETATM    6  C   UNL     1       5.571  -2.150   0.000  1.00  0.00     0.174 A 
HETATM    7  C   UNL     1       8.169  -2.150   0.000  1.00  0.00     0.756 A 
HETATM    8  C   UNL     1       9.596  -4.113   0.000  1.00  0.00     0.165 A 
HETATM    9  C   UNL     1       6.870  -4.399   0.000  1.00  0.00     0.159 A 
HETATM   10  C   UNL     1      10.059  -5.540   0.000  1.00  0.00     0.075 C 
ENDROOT
BRANCH   6  11
HETATM   11  C   UNL     1       4.272  -1.399   0.000  1.00  0.00    -0.008 A 
HETATM   12  C   UNL     1       4.272   0.101   0.000  1.00  0.00     0.025 A 
HETATM   13  C   UNL     1       2.973   0.851   0.000  1.00  0.00     0.004 A 
HETATM   14  C   UNL     1       1.674   0.101   0.000  1.00  0.00     0.001 A 
HETATM   15  C   UNL     1       1.674  -1.399   0.000  1.00  0.00     0.004 A 
HETATM   16  C   UNL     1       2.973  -2.150   0.000  1.00  0.00     0.025 A 
ENDBRANCH   6  11
BRANCH   9  17
HETATM   17  C   UNL     1       6.870  -5.899   0.000  1.00  0.00    -0.009 A 
HETATM   18  C   UNL     1       8.169  -6.649   0.000  1.00  0.00     0.025 A 
HETATM   19  C   UNL     1       8.169  -8.149   0.000  1.00  0.00     0.004 A 
HETATM   20  C   UNL     1       6.870  -8.899   0.000  1.00  0.00     0.001 A 
HETATM   21  C   UNL     1       5.571  -8.149   0.000  1.00  0.00     0.004 A 
HETATM   22  C   UNL     1       5.571  -6.649   0.000  1.00  0.00     0.025 A 
ENDBRANCH   9  17
TORSDOF 2
