REMARK  2 active torsions:
REMARK  status: ('A' for Active; 'I' for Inactive)
REMARK    1  A    between atoms: C_4  and  C_17 
REMARK    2  A    between atoms: C_9  and  N_16 
REMARK       I    between atoms: N_16  and  C_17 
ROOT
HETATM    1 CL   UNL     1      -9.468  -1.399   0.000  1.00  0.00    -0.085 Cl
HETATM    2  C   UNL     1      -8.169   2.350   0.000  1.00  0.00     0.069 A 
HETATM    3  C   UNL     1      -8.169   0.851   0.000  1.00  0.00     0.072 A 
HETATM    4  C   UNL     1      -9.468   3.100   0.000  1.00  0.00    -0.029 A 
HETATM    5  C   UNL     1      -9.468   0.101   0.000  1.00  0.00     0.055 A 
HETATM    6  C   UNL     1     -10.767   2.350   0.000  1.00  0.00     0.046 A 
HETATM    7  C   UNL     1     -10.767   0.851   0.000  1.00  0.00     0.079 A 
HETATM    8  N   UNL     1     -12.066   3.100   0.000  1.00  0.00    -0.105 NA
HETATM    9  C   UNL     1      -9.468   4.601   0.000  1.00  0.00     0.028 C 
ENDROOT
BRANCH   3  10
HETATM   10  N   UNL     1      -6.870   0.101   0.000  1.00  0.00    -0.224 NA
HETATM   11  C   UNL     1      -5.571   0.851   0.000  1.00  0.00     0.204 C 
HETATM   12  O   UNL     1      -5.571   2.350   0.000  1.00  0.00    -0.170 OA
BRANCH  11  13
HETATM   13  C   UNL     1      -4.272   0.101   0.000  1.00  0.00    -0.001 A 
HETATM   14  C   UNL     1      -2.973   0.851   0.000  1.00  0.00     0.026 A 
HETATM   15  C   UNL     1      -1.674   0.101   0.000  1.00  0.00     0.004 A 
HETATM   16  C   UNL     1      -1.674  -1.399   0.000  1.00  0.00     0.001 A 
HETATM   17  C   UNL     1      -2.973  -2.150   0.000  1.00  0.00     0.004 A 
HETATM   18  C   UNL     1      -4.272  -1.399   0.000  1.00  0.00     0.026 A 
ENDBRANCH  11  13
ENDBRANCH   3  10
TORSDOF 2
