REMARK  0 active torsions:
REMARK  status: ('A' for Active; 'I' for Inactive)
ROOT
HETATM    1  H   UNL     1       4.259   5.078   0.000  1.00  0.00     0.166 HD
HETATM    2  N   UNL     1       2.920   4.401   0.000  1.00  0.00    -0.357 N 
HETATM    3  N   UNL     1       1.950  -2.252   0.000  1.00  0.00    -0.255 NA
HETATM    4  C   UNL     1       4.658  -1.831   0.000  1.00  0.00     0.046 A 
HETATM    5  C   UNL     1       5.721  -0.773   0.000  1.00  0.00     0.011 A 
HETATM    6  C   UNL     1       3.210  -1.438   0.000  1.00  0.00     0.058 A 
HETATM    7  C   UNL     1       5.337   0.677   0.000  1.00  0.00     0.027 A 
HETATM    8  C   UNL     1       2.826   0.012   0.000  1.00  0.00     0.007 A 
HETATM    9  C   UNL     1       3.889   1.069   0.000  1.00  0.00    -0.020 A 
HETATM   10  C   UNL     1       1.328   0.095   0.000  1.00  0.00    -0.003 A 
HETATM   11  C   UNL     1       0.786  -1.304   0.000  1.00  0.00     0.055 A 
HETATM   12  C   UNL     1       1.201   6.535   0.000  1.00  0.00     0.043 A 
HETATM   13  C   UNL     1       1.586   5.085   0.000  1.00  0.00     0.029 A 
HETATM   14  C   UNL     1      -0.246   6.928   0.000  1.00  0.00     0.007 A 
HETATM   15  C   UNL     1       0.522   4.028   0.000  1.00  0.00    -0.013 A 
HETATM   16  C   UNL     1      -1.310   5.870   0.000  1.00  0.00     0.005 A 
HETATM   17  C   UNL     1      -0.926   4.420   0.000  1.00  0.00     0.027 A 
HETATM   18  C   UNL     1       1.199   2.689   0.000  1.00  0.00    -0.005 A 
HETATM   19  C   UNL     1       2.681   2.920   0.000  1.00  0.00     0.052 A 
HETATM   20  C   UNL     1       3.739   1.856   0.000  1.00  0.00     0.012 A 
HETATM   21  C   UNL     1       0.514   1.355   0.000  1.00  0.00     0.055 A 
HETATM   22  C   UNL     1      -0.663  -1.689   0.000  1.00  0.00     0.052 C 
ENDROOT
TORSDOF 0
