REMARK  1 active torsions:
REMARK  status: ('A' for Active; 'I' for Inactive)
REMARK    1  A    between atoms: C_11  and  C_14 
ROOT
HETATM    1  O   UNL     1      -4.821 -11.149   0.000  1.00  0.00    -0.194 OA
HETATM    2  O   UNL     1      -4.821  -6.649   0.000  1.00  0.00    -0.309 OA
HETATM    3  C   UNL     1      -7.419  -6.649   0.000  1.00  0.00     0.181 A 
HETATM    4  C   UNL     1      -6.120  -7.399   0.000  1.00  0.00     0.131 A 
HETATM    5  C   UNL     1      -8.718  -7.399   0.000  1.00  0.00     0.185 A 
HETATM    6  C   UNL     1      -6.120  -8.899   0.000  1.00  0.00     0.074 A 
HETATM    7  C   UNL     1      -8.718  -8.899   0.000  1.00  0.00     0.184 A 
HETATM    8  C   UNL     1      -4.821  -9.649   0.000  1.00  0.00     0.119 A 
HETATM    9  C   UNL     1      -3.522  -7.399   0.000  1.00  0.00     0.076 A 
HETATM   10  C   UNL     1      -3.522  -8.899   0.000  1.00  0.00     0.105 A 
HETATM   11  C   UNL     1      -7.419  -9.649   0.000  1.00  0.00     0.162 A 
HETATM   12  O   UNL     1     -10.017  -6.649   0.000  1.00  0.00    -0.186 OA
HETATM   13  O   UNL     1     -10.017  -9.649   0.000  1.00  0.00    -0.186 OA
HETATM   14  O   UNL     1      -7.419 -11.149   0.000  1.00  0.00    -0.188 OA
HETATM   15  O   UNL     1      -7.419  -5.149   0.000  1.00  0.00    -0.186 OA
ENDROOT
BRANCH   9  16
HETATM   16  C   UNL     1      -2.223  -6.649   0.000  1.00  0.00    -0.025 A 
HETATM   17  C   UNL     1      -2.223  -5.149   0.000  1.00  0.00     0.026 A 
HETATM   18  C   UNL     1      -0.924  -4.399   0.000  1.00  0.00     0.037 A 
HETATM   19  C   UNL     1       0.375  -5.149   0.000  1.00  0.00     0.153 A 
HETATM   20  C   UNL     1       0.375  -6.649   0.000  1.00  0.00     0.037 A 
HETATM   21  O   UNL     1       1.674  -4.399   0.000  1.00  0.00    -0.223 OA
HETATM   22  C   UNL     1      -0.924  -7.399   0.000  1.00  0.00     0.026 A 
ENDBRANCH   9  16
TORSDOF 1
