REMARK  4 active torsions:
REMARK  status: ('A' for Active; 'I' for Inactive)
REMARK    1  A    between atoms: C_6  and  C_11 
REMARK    2  A    between atoms: C_8  and  S_9 
REMARK    3  A    between atoms: C_11  and  O_12 
REMARK    4  A    between atoms: O_12  and  C_13 
ROOT
HETATM    1  O   UNL     1      -6.770  -4.774   0.000  1.00  0.00    -0.174 OA
HETATM    2  N   UNL     1      -5.471  -7.024   0.000  1.00  0.00    -0.200 NA
HETATM    3  N   UNL     1      -2.873  -7.024   0.000  1.00  0.00    -0.338 N 
HETATM    4  H   UNL     1      -1.573  -7.774   0.000  1.00  0.00     0.167 HD
HETATM    5  C   UNL     1      -4.172  -4.774   0.000  1.00  0.00     0.116 A 
HETATM    6  C   UNL     1      -2.873  -5.524   0.000  1.00  0.00     0.051 A 
HETATM    7  C   UNL     1      -5.471  -5.524   0.000  1.00  0.00     0.197 A 
HETATM    8  C   UNL     1      -4.172  -7.774   0.000  1.00  0.00     0.169 A 
ENDROOT
BRANCH   6   9
HETATM    9  C   UNL     1      -1.573  -4.774   0.000  1.00  0.00     0.182 C 
BRANCH   9  10
HETATM   10  O   UNL     1      -0.275  -5.524   0.000  1.00  0.00    -0.348 OA
BRANCH  10  11
HETATM   11  C   UNL     1       1.024  -4.774   0.000  1.00  0.00     0.143 C 
HETATM   12  C   UNL     1       2.324  -5.524   0.000  1.00  0.00     0.035 C 
ENDBRANCH  10  11
ENDBRANCH   9  10
ENDBRANCH   6   9
BRANCH   8  13
HETATM   13  S   UNL     1      -4.172  -9.274   0.000  1.00  0.00    -0.076 SA
HETATM   14  C   UNL     1      -5.471 -10.024   0.000  1.00  0.00     0.077 C 
ENDBRANCH   8  13
TORSDOF 4
