REMARK  0 active torsions:
REMARK  status: ('A' for Active; 'I' for Inactive)
ROOT
HETATM    1  O   UNL     1       2.049  -5.250   0.000  1.00  0.00    -0.315 OA
HETATM    2  O   UNL     1       5.946  -7.500   0.000  1.00  0.00    -0.305 OA
HETATM    3  C   UNL     1       3.348  -4.500   0.000  1.00  0.00     0.086 A 
HETATM    4  C   UNL     1       4.647  -5.250   0.000  1.00  0.00     0.090 A 
HETATM    5  C   UNL     1       4.647  -6.750   0.000  1.00  0.00     0.108 A 
HETATM    6  C   UNL     1       3.348  -7.500   0.000  1.00  0.00     0.090 A 
HETATM    7  C   UNL     1       2.049  -6.750   0.000  1.00  0.00     0.083 A 
HETATM    8  C   UNL     1       0.750  -7.500   0.000  1.00  0.00     0.059 C 
HETATM    9  C   UNL     1       3.348  -3.000   0.000  1.00  0.00     0.082 A 
HETATM   10  C   UNL     1       3.348  -9.000   0.000  1.00  0.00     0.234 A 
HETATM   11  O   UNL     1       2.049  -9.750   0.000  1.00  0.00    -0.163 OA
HETATM   12  O   UNL     1       4.647  -9.750   0.000  1.00  0.00    -0.282 OA
HETATM   13  C   UNL     1       5.946  -9.000   0.000  1.00  0.00     0.246 A 
HETATM   14  C   UNL     1       7.245  -9.750   0.000  1.00  0.00     0.068 C 
HETATM   15  C   UNL     1       5.946  -4.500   0.000  1.00  0.00     0.232 A 
HETATM   16  O   UNL     1       7.245  -5.250   0.000  1.00  0.00    -0.163 OA
HETATM   17  O   UNL     1       5.946  -3.000   0.000  1.00  0.00    -0.311 OA
HETATM   18  C   UNL     1       4.647  -2.250   0.000  1.00  0.00     0.130 A 
HETATM   19  C   UNL     1       4.647  -0.750   0.000  1.00  0.00     0.033 C 
ENDROOT
TORSDOF 0
