REMARK  3 active torsions:
REMARK  status: ('A' for Active; 'I' for Inactive)
REMARK    1  A    between atoms: C_7  and  C_15 
REMARK    2  A    between atoms: C_11  and  C_16 
REMARK    3  A    between atoms: C_15  and  C_16 
ROOT
HETATM    1  N   UNL     1      -6.820  -6.304   0.000  1.00  0.00    -0.203 NA
HETATM    2  N   UNL     1      -5.521  -8.554   0.000  1.00  0.00    -0.219 NA
HETATM    3 CL   UNL     1      -5.521  -4.054   0.000  1.00  0.00    -0.062 Cl
HETATM    4  C   UNL     1      -5.521  -5.554   0.000  1.00  0.00     0.138 A 
HETATM    5  C   UNL     1      -4.222  -6.304   0.000  1.00  0.00     0.020 A 
HETATM    6  C   UNL     1      -4.222  -7.804   0.000  1.00  0.00     0.060 A 
HETATM    7  C   UNL     1      -6.820  -7.804   0.000  1.00  0.00     0.238 A 
HETATM    8  N   UNL     1      -8.119  -8.554   0.000  1.00  0.00    -0.060 NA
HETATM    9  C   UNL     1      -2.923  -8.554   0.000  1.00  0.00     0.052 C 
ENDROOT
BRANCH   5  10
HETATM   10  C   UNL     1      -2.923  -5.554   0.000  1.00  0.00     0.035 C 
BRANCH  10  11
HETATM   11  C   UNL     1      -2.923  -4.054   0.000  1.00  0.00     0.066 C 
BRANCH  11  12
HETATM   12  C   UNL     1      -1.624  -3.304   0.000  1.00  0.00     0.236 A 
HETATM   13  O   UNL     1      -0.254  -3.914   0.000  1.00  0.00    -0.328 OA
HETATM   14  C   UNL     1       0.750  -2.799   0.000  1.00  0.00     0.177 A 
HETATM   15  C   UNL     1       0.000  -1.500   0.000  1.00  0.00     0.177 A 
HETATM   16  O   UNL     1      -1.467  -1.812   0.000  1.00  0.00    -0.328 OA
ENDBRANCH  11  12
ENDBRANCH  10  11
ENDBRANCH   5  10
TORSDOF 3
