REMARK  1 active torsions:
REMARK  status: ('A' for Active; 'I' for Inactive)
REMARK    1  A    between atoms: C_7  and  C_10 
ROOT
HETATM    1  C   UNL     1       1.674   0.101   0.000  1.00  0.00     0.025 A 
HETATM    2  C   UNL     1       1.674  -1.399   0.000  1.00  0.00     0.103 A 
HETATM    3  C   UNL     1       2.973   0.851   0.000  1.00  0.00     0.010 A 
HETATM    4  N   UNL     1       2.973  -2.150   0.000  1.00  0.00    -0.332 N 
HETATM    5  C   UNL     1       3.285  -3.617   0.000  1.00  0.00     0.148 A 
HETATM    6  C   UNL     1       4.272  -1.399   0.000  1.00  0.00     0.116 A 
HETATM    7  C   UNL     1       4.777  -3.773   0.000  1.00  0.00     0.075 A 
HETATM    8  C   UNL     1       4.272   0.101   0.000  1.00  0.00     0.064 A 
HETATM    9  N   UNL     1       5.387  -2.403   0.000  1.00  0.00    -0.236 NA
ENDROOT
BRANCH   7  10
HETATM   10  C   UNL     1       5.527  -5.073   0.000  1.00  0.00    -0.029 A 
HETATM   11  C   UNL     1       7.027  -5.073   0.000  1.00  0.00     0.023 A 
HETATM   12  C   UNL     1       7.777  -6.372   0.000  1.00  0.00     0.004 A 
HETATM   13  C   UNL     1       7.027  -7.671   0.000  1.00  0.00     0.001 A 
HETATM   14  C   UNL     1       5.527  -7.671   0.000  1.00  0.00     0.004 A 
HETATM   15  C   UNL     1       4.777  -6.372   0.000  1.00  0.00     0.023 A 
ENDBRANCH   7  10
TORSDOF 1
