REMARK  4 active torsions:
REMARK  status: ('A' for Active; 'I' for Inactive)
REMARK    1  A    between atoms: N_2  and  C_5 
REMARK    2  A    between atoms: N_2  and  N_3 
REMARK    3  A    between atoms: N_3  and  C_10 
REMARK    4  A    between atoms: C_12  and  O_17 
ROOT
HETATM    1  N   UNL     1      -7.245   5.918   0.000  1.00  0.00    -0.150 NA
ENDROOT
BRANCH   1   2
HETATM    2  C   UNL     1      -8.544   6.668   0.000  1.00  0.00     0.112 A 
HETATM    3  C   UNL     1      -9.843   5.918   0.000  1.00  0.00     0.167 A 
HETATM    4  N   UNL     1     -11.142   6.668   0.000  1.00  0.00    -0.221 NA
HETATM    5  N   UNL     1      -9.843   4.418   0.000  1.00  0.00    -0.078 NA
HETATM    6  C   UNL     1     -11.142   8.168   0.000  1.00  0.00     0.130 A 
HETATM    7  C   UNL     1      -9.843   8.918   0.000  1.00  0.00     0.067 A 
HETATM    8  N   UNL     1     -12.441   8.918   0.000  1.00  0.00    -0.085 NA
HETATM    9  C   UNL     1      -8.544   8.168   0.000  1.00  0.00     0.058 A 
ENDBRANCH   1   2
BRANCH   1  10
HETATM   10  N   UNL     1      -7.245   4.418   0.000  1.00  0.00    -0.157 NA
BRANCH  10  11
HETATM   11  C   UNL     1      -5.946   3.668   0.000  1.00  0.00     0.059 A 
HETATM   12  C   UNL     1      -4.647   4.418   0.000  1.00  0.00     0.046 A 
HETATM   13  C   UNL     1      -3.348   3.668   0.000  1.00  0.00     0.036 A 
HETATM   14  C   UNL     1      -3.348   2.168   0.000  1.00  0.00     0.116 A 
HETATM   15  C   UNL     1      -4.647   1.418   0.000  1.00  0.00     0.036 A 
HETATM   16  C   UNL     1      -5.946   2.168   0.000  1.00  0.00     0.046 A 
BRANCH  14  17
HETATM   17  O   UNL     1      -2.049   1.418   0.000  1.00  0.00    -0.354 OA
HETATM   18  C   UNL     1      -0.750   2.168   0.000  1.00  0.00     0.174 C 
ENDBRANCH  14  17
ENDBRANCH  10  11
ENDBRANCH   1  10
TORSDOF 4
