REMARK  0 active torsions:
REMARK  status: ('A' for Active; 'I' for Inactive)
ROOT
HETATM    1  N   UNL     1       1.824   3.186   0.000  1.00  0.00    -0.035 NA
HETATM    2  S   UNL     1       2.287   1.759   0.000  1.00  0.00     0.008 SA
HETATM    3  N   UNL     1       3.037   4.068   0.000  1.00  0.00    -0.148 NA
HETATM    4  C   UNL     1       4.251   3.186   0.000  1.00  0.00     0.191 A 
HETATM    5  C   UNL     1       3.787   1.759   0.000  1.00  0.00     0.099 A 
HETATM    6  N   UNL     1       5.677   3.650   0.000  1.00  0.00    -0.177 NA
HETATM    7  C   UNL     1       6.792   2.646   0.000  1.00  0.00     0.324 A 
HETATM    8  O   UNL     1       8.219   3.109   0.000  1.00  0.00    -0.141 OA
HETATM    9  O   UNL     1       6.480   1.179   0.000  1.00  0.00    -0.273 OA
HETATM   10  C   UNL     1       5.054   0.715   0.000  1.00  0.00     0.092 A 
HETATM   11  C   UNL     1       4.742  -0.752   0.000  1.00  0.00     0.059 C 
ENDROOT
TORSDOF 0
