REMARK  5 active torsions:
REMARK  status: ('A' for Active; 'I' for Inactive)
REMARK    1  A    between atoms: N_2  and  C_13 
REMARK    2  A    between atoms: C_13  and  C_14 
REMARK    3  A    between atoms: C_13  and  C_17 
REMARK    4  A    between atoms: C_17  and  C_18 
REMARK    5  A    between atoms: C_18  and  C_19 
ROOT
HETATM    1  O   UNL     1      -6.586  -2.928   0.000  1.00  0.00    -0.171 OA
HETATM    2  N   UNL     1      -5.372  -5.310   0.000  1.00  0.00    -0.263 N 
HETATM    3  O   UNL     1      -4.954  -7.950   0.000  1.00  0.00    -0.171 OA
HETATM    4  C   UNL     1      -6.586  -4.428   0.000  1.00  0.00     0.195 A 
HETATM    5  C   UNL     1      -7.799  -5.310   0.000  1.00  0.00     0.020 A 
HETATM    6  C   UNL     1      -9.266  -4.998   0.000  1.00  0.00     0.032 A 
HETATM    7  C   UNL     1     -10.270  -6.113   0.000  1.00  0.00     0.038 A 
HETATM    8  C   UNL     1      -7.336  -6.737   0.000  1.00  0.00     0.022 A 
HETATM    9  C   UNL     1      -9.806  -7.540   0.000  1.00  0.00     0.157 A 
HETATM   10  C   UNL     1      -8.339  -7.851   0.000  1.00  0.00     0.063 A 
HETATM   11  C   UNL     1      -5.836  -6.737   0.000  1.00  0.00     0.196 A 
HETATM   12  O   UNL     1     -10.810  -8.654   0.000  1.00  0.00    -0.223 OA
ENDROOT
BRANCH   2  13
HETATM   13  C   UNL     1      -3.945  -4.846   0.000  1.00  0.00     0.109 C 
BRANCH  13  14
HETATM   14  C   UNL     1      -2.831  -5.850   0.000  1.00  0.00     0.224 C 
HETATM   15  O   UNL     1      -1.404  -5.387   0.000  1.00  0.00    -0.643 OA
HETATM   16  O   UNL     1      -3.143  -7.317   0.000  1.00  0.00    -0.643 OA
ENDBRANCH  13  14
BRANCH  13  17
HETATM   17  C   UNL     1      -3.634  -3.379   0.000  1.00  0.00     0.056 C 
BRANCH  17  18
HETATM   18  C   UNL     1      -2.148  -3.171   0.000  1.00  0.00     0.080 C 
BRANCH  18  19
HETATM   19  C   UNL     1      -1.586  -1.780   0.000  1.00  0.00     0.451 C 
HETATM   20  O   UNL     1      -2.510  -0.598   0.000  1.00  0.00    -0.182 OA
HETATM   21  N   UNL     1      -0.101  -1.571   0.000  1.00  0.00     0.652 N 
ENDBRANCH  18  19
ENDBRANCH  17  18
ENDBRANCH  13  17
ENDBRANCH   2  13
TORSDOF 5
