REMARK  0 active torsions:
REMARK  status: ('A' for Active; 'I' for Inactive)
ROOT
HETATM    1 CL   UNL     1       1.024  -0.275   0.000  1.00  0.00    -0.042 Cl
HETATM    2  N   UNL     1       2.324  -2.525   0.000  1.00  0.00    -0.218 N 
HETATM    3  N   UNL     1       3.623  -0.275   0.000  1.00  0.00    -0.199 NA
HETATM    4  N   UNL     1       6.348  -0.561   0.000  1.00  0.00    -0.259 N 
HETATM    5 CL   UNL     1       1.024  -3.275   0.000  1.00  0.00    -0.059 Cl
HETATM    6  N   UNL     1       7.230  -1.774   0.000  1.00  0.00    -0.115 NA
HETATM    7  C   UNL     1       2.324  -1.024   0.000  1.00  0.00     0.221 A 
HETATM    8  C   UNL     1       4.922  -1.024   0.000  1.00  0.00     0.158 A 
HETATM    9  C   UNL     1       4.922  -2.525   0.000  1.00  0.00     0.068 A 
HETATM   10  C   UNL     1       3.623  -3.275   0.000  1.00  0.00     0.159 A 
HETATM   11  C   UNL     1       6.348  -2.988   0.000  1.00  0.00     0.147 A 
HETATM   12  C   UNL     1       2.324  -5.524   0.000  1.00  0.00     0.068 A 
HETATM   13  C   UNL     1       1.024  -4.774   0.000  1.00  0.00     0.056 A 
HETATM   14  C   UNL     1       2.324  -7.024   0.000  1.00  0.00     0.046 A 
HETATM   15  C   UNL     1      -0.275  -5.524   0.000  1.00  0.00     0.040 A 
HETATM   16  C   UNL     1       1.025  -7.774   0.000  1.00  0.00     0.007 A 
HETATM   17  C   UNL     1      -0.275  -7.024   0.000  1.00  0.00     0.006 A 
HETATM   18  N   UNL     1       3.623  -4.774   0.000  1.00  0.00    -0.231 NA
HETATM   19  C   UNL     1       6.812   0.866   0.000  1.00  0.00     0.149 C 
ENDROOT
TORSDOF 0
