REMARK  1 active torsions:
REMARK  status: ('A' for Active; 'I' for Inactive)
REMARK    1  A    between atoms: C_8  and  N_19 
ROOT
HETATM    1  H   UNL     1     -10.250  -1.831   0.000  1.00  0.00     0.167 HD
HETATM    2  N   UNL     1      -9.368  -3.045   0.000  1.00  0.00    -0.340 N 
HETATM    3  N   UNL     1      -7.605  -5.472   0.000  1.00  0.00    -0.246 NA
HETATM    4  N   UNL     1      -6.995  -1.675   0.000  1.00  0.00    -0.232 NA
HETATM    5  C   UNL     1      -4.269  -1.388   0.000  1.00  0.00     0.052 A 
HETATM    6  C   UNL     1      -2.970  -2.138   0.000  1.00  0.00     0.052 A 
HETATM    7  C   UNL     1      -5.568  -2.138   0.000  1.00  0.00     0.059 A 
HETATM    8  C   UNL     1      -2.970  -3.638   0.000  1.00  0.00     0.087 A 
HETATM    9  C   UNL     1      -5.568  -3.638   0.000  1.00  0.00     0.018 A 
HETATM   10  C   UNL     1      -4.269  -4.388   0.000  1.00  0.00     0.075 A 
HETATM   11  C   UNL     1      -6.995  -4.102   0.000  1.00  0.00     0.112 A 
HETATM   12  C   UNL     1      -7.876  -2.888   0.000  1.00  0.00     0.158 A 
HETATM   13  C   UNL     1     -11.470  -4.572   0.000  1.00  0.00     0.045 A 
HETATM   14  C   UNL     1      -9.978  -4.415   0.000  1.00  0.00     0.048 A 
HETATM   15  C   UNL     1     -12.080  -5.942   0.000  1.00  0.00     0.007 A 
HETATM   16  C   UNL     1      -9.096  -5.629   0.000  1.00  0.00     0.070 A 
HETATM   17  C   UNL     1     -11.198  -7.156   0.000  1.00  0.00     0.007 A 
HETATM   18  C   UNL     1      -9.707  -6.999   0.000  1.00  0.00     0.047 A 
ENDROOT
BRANCH   8  19
HETATM   19  N   UNL     1      -1.671  -4.388   0.000  1.00  0.00    -0.122 N 
HETATM   20  O   UNL     1      -0.372  -3.638   0.000  1.00  0.00    -0.532 OA
HETATM   21  O   UNL     1      -1.671  -5.888   0.000  1.00  0.00    -0.532 OA
ENDBRANCH   8  19
TORSDOF 1
