REMARK  3 active torsions:
REMARK  status: ('A' for Active; 'I' for Inactive)
REMARK    1  A    between atoms: C_12  and  C_13 
REMARK    2  A    between atoms: C_12  and  N_16 
REMARK    3  A    between atoms: N_16  and  C_21 
ROOT
HETATM    1  C   UNL     1       8.371   3.834   0.000  1.00  0.00     0.172 A 
HETATM    2  C   UNL     1       7.047   4.538   0.000  1.00  0.00     0.051 A 
HETATM    3  C   UNL     1       7.307   6.015   0.000  1.00  0.00     0.009 A 
HETATM    4  C   UNL     1       9.450   4.876   0.000  1.00  0.00     0.151 A 
HETATM    5  C   UNL     1       8.793   6.224   0.000  1.00  0.00     0.033 A 
HETATM    6  C   UNL     1      13.418   3.619   0.000  1.00  0.00     0.030 A 
HETATM    7  C   UNL     1      12.118   2.869   0.000  1.00  0.00     0.016 A 
HETATM    8  C   UNL     1      14.716   2.869   0.000  1.00  0.00     0.005 A 
HETATM    9  C   UNL     1      14.716   1.369   0.000  1.00  0.00     0.005 A 
HETATM   10  C   UNL     1      12.118   1.369   0.000  1.00  0.00    -0.004 A 
HETATM   11  C   UNL     1      13.418   0.620   0.000  1.00  0.00     0.028 A 
HETATM   12  N   UNL     1       9.520   2.869   0.000  1.00  0.00    -0.242 N 
HETATM   13  C   UNL     1      10.819   3.619   0.000  1.00  0.00     0.170 A 
HETATM   14  O   UNL     1      10.819   5.120   0.000  1.00  0.00    -0.315 OA
HETATM   15  C   UNL     1       7.532   2.590   0.000  1.00  0.00     0.208 A 
HETATM   16  O   UNL     1       8.190   1.242   0.000  1.00  0.00    -0.172 OA
HETATM   17  C   UNL     1      10.819   0.620   0.000  1.00  0.00     0.089 A 
HETATM   18  O   UNL     1       9.520   1.369   0.000  1.00  0.00     0.000 OA
HETATM   19  N   UNL     1       6.036   2.695   0.000  1.00  0.00    -0.250 NA
HETATM   20  C   UNL     1       5.379   4.043   0.000  1.00  0.00     0.107 A 
HETATM   21  C   UNL     1       6.217   5.287   0.000  1.00  0.00     0.025 A 
HETATM   22  C   UNL     1       5.560   6.635   0.000  1.00  0.00     0.002 C 
ENDROOT
BRANCH  17  23
HETATM   23  N   UNL     1      10.819  -0.880   0.000  1.00  0.00    -0.270 NA
BRANCH  23  24
HETATM   24  C   UNL     1       9.520  -1.631   0.000  1.00  0.00     0.126 C 
BRANCH  24  25
HETATM   25  C   UNL     1       9.520  -3.131   0.000  1.00  0.00     0.026 C 
HETATM   26  C   UNL     1       8.221  -3.881   0.000  1.00  0.00     0.002 C 
ENDBRANCH  24  25
ENDBRANCH  23  24
ENDBRANCH  17  23
TORSDOF 3
