REMARK  3 active torsions:
REMARK  status: ('A' for Active; 'I' for Inactive)
REMARK    1  A    between atoms: C_1  and  S_7 
REMARK    2  A    between atoms: S_7  and  C_11 
REMARK    3  A    between atoms: C_8  and  C_11 
ROOT
HETATM    1  C   UNL     1       5.238   0.558   0.000  1.00  0.00     0.190 A 
HETATM    2  C   UNL     1       3.434   2.182   0.000  1.00  0.00     0.141 A 
HETATM    3  N   UNL     1       4.733   2.932   0.000  1.00  0.00    -0.133 NA
HETATM    4  N   UNL     1       3.746   0.715   0.000  1.00  0.00    -0.320 N 
HETATM    5  N   UNL     1       5.848   1.928   0.000  1.00  0.00    -0.123 NA
HETATM    6  H   UNL     1       2.743  -0.400   0.000  1.00  0.00     0.169 HD
HETATM    7  C   UNL     1       2.064   2.792   0.000  1.00  0.00     0.074 C 
ENDROOT
BRANCH   1   8
HETATM    8  S   UNL     1       5.988  -0.741   0.000  1.00  0.00    -0.064 SA
BRANCH   8   9
HETATM    9  C   UNL     1       7.488  -0.741   0.000  1.00  0.00     0.162 C 
BRANCH   9  10
HETATM   10  C   UNL     1       8.238   0.558   0.000  1.00  0.00     0.197 C 
HETATM   11  O   UNL     1       7.488   1.857   0.000  1.00  0.00    -0.647 OA
HETATM   12  O   UNL     1       9.738   0.558   0.000  1.00  0.00    -0.647 OA
ENDBRANCH   9  10
ENDBRANCH   8   9
ENDBRANCH   1   8
TORSDOF 3
