REMARK  0 active torsions:
REMARK  status: ('A' for Active; 'I' for Inactive)
ROOT
HETATM    1  N   UNL     1       6.221   0.275   0.000  1.00  0.00    -0.289 N 
HETATM    2  N   UNL     1       7.647   2.238   0.000  1.00  0.00    -0.133 NA
HETATM    3  N   UNL     1       8.529   1.024   0.000  1.00  0.00    -0.133 NA
HETATM    4  C   UNL     1       4.922   2.525   0.000  1.00  0.00     0.067 A 
HETATM    5  C   UNL     1       3.623   1.774   0.000  1.00  0.00     0.013 A 
HETATM    6  C   UNL     1       6.221   1.774   0.000  1.00  0.00     0.146 A 
HETATM    7  C   UNL     1       3.623   0.275   0.000  1.00  0.00     0.040 A 
HETATM    8  C   UNL     1       4.922  -0.475   0.000  1.00  0.00     0.022 A 
HETATM    9  C   UNL     1       7.647  -0.189   0.000  1.00  0.00     0.147 A 
HETATM   10  C   UNL     1       2.324   2.525   0.000  1.00  0.00     0.001 C 
HETATM   11  C   UNL     1       4.922  -1.976   0.000  1.00  0.00     0.046 C 
HETATM   12  C   UNL     1       8.111  -1.616   0.000  1.00  0.00     0.074 C 
ENDROOT
TORSDOF 0
