REMARK  3 active torsions:
REMARK  status: ('A' for Active; 'I' for Inactive)
REMARK    1  A    between atoms: C_6  and  C_18 
REMARK    2  A    between atoms: C_8  and  C_19 
REMARK    3  A    between atoms: C_18  and  C_19 
ROOT
HETATM    1  C   UNL     1       3.964  -5.365   0.000  1.00  0.00     0.007 A 
HETATM    2  C   UNL     1       3.964  -3.865   0.000  1.00  0.00     0.004 A 
HETATM    3  C   UNL     1       5.263  -3.115   0.000  1.00  0.00     0.023 A 
HETATM    4  C   UNL     1       5.263  -6.115   0.000  1.00  0.00     0.045 A 
HETATM    5  C   UNL     1       6.562  -5.365   0.000  1.00  0.00     0.046 A 
HETATM    6  C   UNL     1       6.562  -3.865   0.000  1.00  0.00    -0.031 A 
HETATM    7  N   UNL     1       7.861  -6.115   0.000  1.00  0.00    -0.276 NA
HETATM    8  C   UNL     1       7.861  -3.115   0.000  1.00  0.00     0.025 A 
HETATM    9  C   UNL     1       9.160  -3.865   0.000  1.00  0.00     0.031 A 
HETATM   10  C   UNL     1       9.160  -5.365   0.000  1.00  0.00     0.126 A 
ENDROOT
BRANCH   2  11
HETATM   11  C   UNL     1       2.665  -3.115   0.000  1.00  0.00     0.000 C 
BRANCH  11  12
HETATM   12  C   UNL     1       2.665  -1.615   0.000  1.00  0.00     0.000 C 
BRANCH  12  13
HETATM   13  C   UNL     1       1.366  -0.865   0.000  1.00  0.00     0.000 A 
HETATM   14  C   UNL     1       1.366   0.635   0.000  1.00  0.00     0.002 A 
HETATM   15  C   UNL     1       0.067   1.385   0.000  1.00  0.00     0.039 A 
HETATM   16  C   UNL     1      -1.232   0.635   0.000  1.00  0.00     0.302 A 
HETATM   17  C   UNL     1      -1.232  -0.865   0.000  1.00  0.00     0.039 A 
HETATM   18  N   UNL     1      -2.531   1.385   0.000  1.00  0.00     0.616 N 
HETATM   19  C   UNL     1       0.067  -1.615   0.000  1.00  0.00     0.002 A 
ENDBRANCH  12  13
ENDBRANCH  11  12
ENDBRANCH   2  11
TORSDOF 3
