REMARK  3 active torsions:
REMARK  status: ('A' for Active; 'I' for Inactive)
REMARK    1  A    between atoms: C_3  and  O_17 
REMARK    2  A    between atoms: C_8  and  N_14 
REMARK       I    between atoms: N_14  and  C_15 
REMARK    3  A    between atoms: C_15  and  O_17 
ROOT
HETATM    1  N   UNL     1       4.272  -0.101   0.000  1.00  0.00    -0.207 NA
HETATM    2  C   UNL     1       5.571  -0.851   0.000  1.00  0.00     0.318 C 
HETATM    3  O   UNL     1       5.571  -2.350   0.000  1.00  0.00    -0.141 OA
ENDROOT
BRANCH   2   4
HETATM    4  O   UNL     1       6.870  -0.101   0.000  1.00  0.00    -0.297 OA
BRANCH   4   5
HETATM    5  C   UNL     1       8.169  -0.851   0.000  1.00  0.00     0.125 A 
HETATM    6  C   UNL     1       9.468  -0.101   0.000  1.00  0.00     0.032 A 
HETATM    7  C   UNL     1      10.767  -0.851   0.000  1.00  0.00     0.042 A 
HETATM    8  C   UNL     1      10.767  -2.350   0.000  1.00  0.00     0.302 A 
HETATM    9  C   UNL     1       9.468  -3.100   0.000  1.00  0.00     0.042 A 
HETATM   10  N   UNL     1      12.066  -3.100   0.000  1.00  0.00     0.616 N 
HETATM   11  C   UNL     1       8.169  -2.350   0.000  1.00  0.00     0.032 A 
ENDBRANCH   4   5
ENDBRANCH   2   4
BRANCH   1  12
HETATM   12  C   UNL     1       4.272   1.399   0.000  1.00  0.00     0.041 A 
HETATM   13  C   UNL     1       5.571   2.150   0.000  1.00  0.00     0.044 A 
HETATM   14  C   UNL     1       5.571   3.650   0.000  1.00  0.00     0.039 A 
HETATM   15  C   UNL     1       4.272   4.399   0.000  1.00  0.00     0.153 A 
HETATM   16  C   UNL     1       2.973   3.650   0.000  1.00  0.00     0.039 A 
HETATM   17  O   UNL     1       4.272   5.899   0.000  1.00  0.00    -0.223 OA
HETATM   18  C   UNL     1       2.973   2.150   0.000  1.00  0.00     0.044 A 
ENDBRANCH   1  12
TORSDOF 3
