REMARK  4 active torsions:
REMARK  status: ('A' for Active; 'I' for Inactive)
REMARK    1  A    between atoms: C_6  and  C_17 
REMARK    2  A    between atoms: C_17  and  N_18 
REMARK    3  A    between atoms: C_20  and  O_21 
REMARK    4  A    between atoms: O_21  and  C_22 
ROOT
HETATM    1  H   UNL     1     -12.730  -3.473   0.000  1.00  0.00     0.166 HD
HETATM    2  N   UNL     1     -12.267  -4.899   0.000  1.00  0.00    -0.357 N 
HETATM    3  C   UNL     1      -9.541  -4.613   0.000  1.00  0.00    -0.024 A 
HETATM    4  C   UNL     1     -10.840  -5.363   0.000  1.00  0.00     0.048 A 
HETATM    5  C   UNL     1      -8.242  -5.363   0.000  1.00  0.00     0.047 A 
HETATM    6  C   UNL     1      -8.242  -6.863   0.000  1.00  0.00    -0.022 A 
HETATM    7  C   UNL     1     -10.840  -6.863   0.000  1.00  0.00     0.008 A 
HETATM    8  C   UNL     1      -9.541  -7.613   0.000  1.00  0.00    -0.026 A 
HETATM    9  C   UNL     1     -12.267  -7.326   0.000  1.00  0.00    -0.010 A 
HETATM   10  C   UNL     1     -14.640  -6.269   0.000  1.00  0.00     0.043 A 
HETATM   11  C   UNL     1     -13.148  -6.113   0.000  1.00  0.00     0.030 A 
HETATM   12  C   UNL     1     -15.250  -7.640   0.000  1.00  0.00     0.007 A 
HETATM   13  C   UNL     1     -14.368  -8.853   0.000  1.00  0.00     0.005 A 
HETATM   14  C   UNL     1     -12.877  -8.697   0.000  1.00  0.00     0.028 A 
HETATM   15  C   UNL     1      -9.541  -3.113   0.000  1.00  0.00     0.028 C 
HETATM   16  C   UNL     1      -9.541  -9.113   0.000  1.00  0.00     0.030 C 
ENDROOT
BRANCH   6  17
HETATM   17  C   UNL     1      -6.943  -7.613   0.000  1.00  0.00     0.120 C 
BRANCH  17  18
HETATM   18  N   UNL     1      -5.644  -6.863   0.000  1.00  0.00    -0.359 N 
HETATM   19  C   UNL     1      -4.345  -7.613   0.000  1.00  0.00     0.160 A 
HETATM   20  C   UNL     1      -3.046  -6.863   0.000  1.00  0.00     0.258 A 
HETATM   21  O   UNL     1      -3.046  -5.363   0.000  1.00  0.00    -0.328 OA
HETATM   22  C   UNL     1      -4.345  -4.613   0.000  1.00  0.00     0.169 A 
HETATM   23  C   UNL     1      -5.644  -5.363   0.000  1.00  0.00     0.130 A 
BRANCH  20  24
HETATM   24  O   UNL     1      -1.747  -7.613   0.000  1.00  0.00    -0.330 OA
BRANCH  24  25
HETATM   25  C   UNL     1      -0.448  -6.863   0.000  1.00  0.00     0.145 C 
HETATM   26  C   UNL     1       0.851  -7.613   0.000  1.00  0.00     0.035 C 
ENDBRANCH  24  25
ENDBRANCH  20  24
ENDBRANCH  17  18
ENDBRANCH   6  17
TORSDOF 4
