REMARK  1 active torsions:
REMARK  status: ('A' for Active; 'I' for Inactive)
REMARK    1  A    between atoms: C_2  and  C_6 
ROOT
HETATM    1  C   UNL     1       5.571  -0.851   0.000  1.00  0.00    -0.046 A 
HETATM    2  C   UNL     1       5.571   0.649   0.000  1.00  0.00     0.064 A 
HETATM    3  C   UNL     1       4.272   1.399   0.000  1.00  0.00     0.073 A 
HETATM    4  C   UNL     1       4.272  -1.601   0.000  1.00  0.00     0.029 A 
HETATM    5  C   UNL     1       2.973   0.649   0.000  1.00  0.00     0.118 A 
HETATM    6  C   UNL     1       2.973  -0.851   0.000  1.00  0.00     0.059 A 
HETATM    7  N   UNL     1       4.272   2.900   0.000  1.00  0.00    -0.103 NA
HETATM    8  O   UNL     1       1.674   1.399   0.000  1.00  0.00    -0.194 OA
ENDROOT
BRANCH   1   9
HETATM    9  C   UNL     1       6.870  -1.601   0.000  1.00  0.00    -0.052 A 
HETATM   10  C   UNL     1       8.169  -0.851   0.000  1.00  0.00     0.021 A 
HETATM   11  C   UNL     1       9.468  -1.601   0.000  1.00  0.00     0.004 A 
HETATM   12  C   UNL     1       9.468  -3.100   0.000  1.00  0.00     0.001 A 
HETATM   13  C   UNL     1       8.169  -3.850   0.000  1.00  0.00     0.004 A 
HETATM   14  C   UNL     1       6.870  -3.100   0.000  1.00  0.00     0.021 A 
ENDBRANCH   1   9
TORSDOF 1
