REMARK  3 active torsions:
REMARK  status: ('A' for Active; 'I' for Inactive)
REMARK    1  A    between atoms: N_3  and  C_7 
REMARK    2  A    between atoms: C_4  and  C_14 
REMARK    3  A    between atoms: C_5  and  C_12 
ROOT
HETATM    1  N   UNL     1       3.537  -0.542   0.000  1.00  0.00    -0.159 NA
HETATM    2  N   UNL     1       4.540  -1.657   0.000  1.00  0.00     0.010 NA
HETATM    3  N   UNL     1       5.911  -1.046   0.000  1.00  0.00    -0.243 N 
HETATM    4  C   UNL     1       5.754   0.445   0.000  1.00  0.00     0.106 A 
HETATM    5  C   UNL     1       4.287   0.757   0.000  1.00  0.00     0.125 A 
ENDROOT
BRANCH   3   6
HETATM    6  C   UNL     1       7.210  -1.796   0.000  1.00  0.00     0.034 A 
HETATM    7  C   UNL     1       8.509  -1.046   0.000  1.00  0.00     0.041 A 
HETATM    8  C   UNL     1       9.808  -1.796   0.000  1.00  0.00     0.006 A 
HETATM    9  C   UNL     1       9.808  -3.296   0.000  1.00  0.00     0.001 A 
HETATM   10  C   UNL     1       8.509  -4.046   0.000  1.00  0.00     0.006 A 
HETATM   11  C   UNL     1       7.210  -3.296   0.000  1.00  0.00     0.041 A 
ENDBRANCH   3   6
BRANCH   4  12
HETATM   12  C   UNL     1       6.869   1.449   0.000  1.00  0.00     0.229 C 
HETATM   13  O   UNL     1       6.557   2.916   0.000  1.00  0.00    -0.214 OA
ENDBRANCH   4  12
BRANCH   5  14
HETATM   14  C   UNL     1       3.677   2.127   0.000  1.00  0.00     0.230 C 
HETATM   15  O   UNL     1       2.185   2.284   0.000  1.00  0.00    -0.214 OA
ENDBRANCH   5  14
TORSDOF 3
