REMARK  6 active torsions:
REMARK  status: ('A' for Active; 'I' for Inactive)
REMARK    1  A    between atoms: N_2  and  C_7 
REMARK    2  A    between atoms: N_2  and  N_3 
REMARK    3  A    between atoms: N_3  and  C_12 
REMARK    4  A    between atoms: C_4  and  O_22 
REMARK    5  A    between atoms: C_18  and  C_20 
REMARK    6  A    between atoms: C_20  and  O_22 
ROOT
HETATM    1  O   UNL     1     -13.637  -5.357   0.000  1.00  0.00    -0.188 OA
HETATM    2  C   UNL     1     -11.391  -4.170   0.000  1.00  0.00     0.128 A 
HETATM    3  C   UNL     1      -9.908  -3.946   0.000  1.00  0.00     0.029 A 
HETATM    4  C   UNL     1      -8.808  -4.966   0.000  1.00  0.00     0.023 A 
HETATM    5  C   UNL     1      -8.920  -6.462   0.000  1.00  0.00     0.103 A 
HETATM    6  C   UNL     1     -12.141  -5.469   0.000  1.00  0.00     0.154 A 
HETATM    7  C   UNL     1     -10.160  -7.307   0.000  1.00  0.00     0.023 A 
HETATM    8  C   UNL     1     -11.593  -6.865   0.000  1.00  0.00     0.031 A 
ENDROOT
BRANCH   5   9
HETATM    9  N   UNL     1      -7.621  -7.212   0.000  1.00  0.00    -0.149 NA
BRANCH   9  10
HETATM   10  N   UNL     1      -7.621  -8.712   0.000  1.00  0.00    -0.157 NA
BRANCH  10  11
HETATM   11  C   UNL     1      -6.322  -9.462   0.000  1.00  0.00     0.058 A 
HETATM   12  C   UNL     1      -5.023  -8.712   0.000  1.00  0.00     0.043 A 
HETATM   13  C   UNL     1      -3.724  -9.462   0.000  1.00  0.00     0.006 A 
HETATM   14  C   UNL     1      -3.724 -10.962   0.000  1.00  0.00     0.001 A 
HETATM   15  C   UNL     1      -5.023 -11.712   0.000  1.00  0.00     0.006 A 
HETATM   16  C   UNL     1      -2.425 -11.712   0.000  1.00  0.00     0.000 C 
HETATM   17  C   UNL     1      -6.322 -10.962   0.000  1.00  0.00     0.043 A 
ENDBRANCH  10  11
ENDBRANCH   9  10
ENDBRANCH   5   9
BRANCH   2  18
HETATM   18  O   UNL     1     -12.236  -2.930   0.000  1.00  0.00    -0.282 OA
BRANCH  18  19
HETATM   19  C   UNL     1     -11.585  -1.579   0.000  1.00  0.00     0.225 C 
HETATM   20  O   UNL     1     -10.089  -1.467   0.000  1.00  0.00    -0.164 OA
BRANCH  19  21
HETATM   21  C   UNL     1     -12.430  -0.340   0.000  1.00  0.00     0.006 C 
HETATM   22  C   UNL     1     -13.926  -0.452   0.000  1.00  0.00     0.031 C 
HETATM   23  C   UNL     1     -11.779   1.012   0.000  1.00  0.00     0.031 C 
ENDBRANCH  19  21
ENDBRANCH  18  19
ENDBRANCH   2  18
TORSDOF 6
