REMARK  0 active torsions:
REMARK  status: ('A' for Active; 'I' for Inactive)
ROOT
HETATM    1  C   UNL     1       0.750   2.049   0.000  1.00  0.00     0.007 A 
HETATM    2  C   UNL     1       1.500   3.348   0.000  1.00  0.00     0.048 A 
HETATM    3  C   UNL     1       1.500   0.750   0.000  1.00  0.00     0.005 A 
HETATM    4  C   UNL     1       3.000   3.348   0.000  1.00  0.00     0.084 A 
HETATM    5  C   UNL     1       3.000   0.750   0.000  1.00  0.00     0.027 A 
HETATM    6  C   UNL     1       3.750   2.049   0.000  1.00  0.00    -0.009 A 
HETATM    7  O   UNL     1       3.000   5.946   0.000  1.00  0.00    -0.061 OA
HETATM    8  N   UNL     1       3.750   4.647   0.000  1.00  0.00    -0.107 N 
HETATM    9  C   UNL     1       5.250   2.049   0.000  1.00  0.00    -0.010 A 
HETATM   10  N   UNL     1       5.250   4.647   0.000  1.00  0.00    -0.147 NA
HETATM   11  C   UNL     1       6.000   0.750   0.000  1.00  0.00     0.027 A 
HETATM   12  C   UNL     1       6.000   3.348   0.000  1.00  0.00     0.077 A 
HETATM   13  C   UNL     1       7.500   0.750   0.000  1.00  0.00     0.005 A 
HETATM   14  C   UNL     1       7.500   3.348   0.000  1.00  0.00     0.047 A 
HETATM   15  C   UNL     1       8.250   2.049   0.000  1.00  0.00     0.007 A 
ENDROOT
TORSDOF 0
