REMARK  1 active torsions:
REMARK  status: ('A' for Active; 'I' for Inactive)
REMARK    1  A    between atoms: C_18  and  O_25 
ROOT
HETATM    1  C   UNL     1      -9.468   3.100   0.000  1.00  0.00    -0.008 A 
HETATM    2  C   UNL     1      -8.169   3.850   0.000  1.00  0.00     0.051 A 
HETATM    3  C   UNL     1      -6.870   3.100   0.000  1.00  0.00     0.102 A 
HETATM    4  N   UNL     1      -6.870   1.601   0.000  1.00  0.00    -0.373 N 
HETATM    5  C   UNL     1      -8.169   0.851   0.000  1.00  0.00     0.145 A 
HETATM    6  C   UNL     1      -9.468   1.601   0.000  1.00  0.00     0.066 A 
HETATM    7  C   UNL     1      -5.571   0.851   0.000  1.00  0.00     0.091 A 
HETATM    8  C   UNL     1      -5.571  -0.649   0.000  1.00  0.00     0.046 A 
HETATM    9  C   UNL     1      -6.870  -1.399   0.000  1.00  0.00     0.041 A 
HETATM   10  C   UNL     1      -8.169  -0.649   0.000  1.00  0.00     0.017 A 
HETATM   11  C   UNL     1      -4.272  -1.399   0.000  1.00  0.00     0.052 A 
HETATM   12  C   UNL     1      -4.272  -2.900   0.000  1.00  0.00     0.130 A 
HETATM   13  C   UNL     1      -5.571  -3.650   0.000  1.00  0.00     0.112 A 
HETATM   14  C   UNL     1      -6.870  -2.900   0.000  1.00  0.00     0.003 A 
HETATM   15  C   UNL     1     -11.777   2.350   0.000  1.00  0.00     0.057 A 
HETATM   16  C   UNL     1     -10.895   3.564   0.000  1.00  0.00    -0.011 A 
HETATM   17  C   UNL     1     -13.268   2.507   0.000  1.00  0.00     0.075 A 
HETATM   18  C   UNL     1     -13.878   3.878   0.000  1.00  0.00     0.122 A 
HETATM   19  C   UNL     1     -12.997   5.091   0.000  1.00  0.00     0.035 A 
HETATM   20  C   UNL     1     -11.505   4.934   0.000  1.00  0.00     0.030 A 
HETATM   21  C   UNL     1      -8.169  -3.650   0.000  1.00  0.00     0.169 A 
HETATM   22  N   UNL     1     -10.895   1.137   0.000  1.00  0.00    -0.254 NA
HETATM   23  O   UNL     1      -8.169  -5.149   0.000  1.00  0.00    -0.322 OA
HETATM   24  O   UNL     1      -2.973  -3.650   0.000  1.00  0.00    -0.193 OA
HETATM   25  O   UNL     1      -5.571  -5.149   0.000  1.00  0.00    -0.301 OA
HETATM   26  C   UNL     1      -6.870  -5.899   0.000  1.00  0.00     0.299 A 
ENDROOT
BRANCH  18  27
HETATM   27  O   UNL     1     -15.370   4.034   0.000  1.00  0.00    -0.354 OA
HETATM   28  C   UNL     1     -16.252   2.821   0.000  1.00  0.00     0.174 C 
ENDBRANCH  18  27
TORSDOF 1
