REMARK  0 active torsions:
REMARK  status: ('A' for Active; 'I' for Inactive)
ROOT
HETATM    1 CL   UNL     1      -0.750  -0.750   0.000  1.00  0.00    -0.086 Cl
HETATM    2 CL   UNL     1      -0.750  -3.750   0.000  1.00  0.00    -0.086 Cl
HETATM    3  C   UNL     1      -3.348  -0.750   0.000  1.00  0.00     0.060 A 
HETATM    4  C   UNL     1      -2.049  -1.500   0.000  1.00  0.00     0.046 A 
HETATM    5  C   UNL     1      -4.647  -1.500   0.000  1.00  0.00    -0.039 A 
HETATM    6  C   UNL     1      -6.074  -1.036   0.000  1.00  0.00     0.044 A 
HETATM    7  C   UNL     1      -6.955  -2.250   0.000  1.00  0.00    -0.042 A 
HETATM    8  C   UNL     1      -8.447  -2.407   0.000  1.00  0.00     0.061 A 
HETATM    9  C   UNL     1      -9.057  -3.777   0.000  1.00  0.00     0.306 A 
HETATM   10  C   UNL     1      -2.049  -3.000   0.000  1.00  0.00     0.047 A 
HETATM   11  C   UNL     1      -4.647  -3.000   0.000  1.00  0.00    -0.029 A 
HETATM   12  C   UNL     1      -6.074  -3.463   0.000  1.00  0.00    -0.034 A 
HETATM   13  C   UNL     1      -8.176  -4.991   0.000  1.00  0.00     0.044 A 
HETATM   14  C   UNL     1      -3.348  -3.750   0.000  1.00  0.00     0.064 A 
HETATM   15  C   UNL     1      -6.684  -4.834   0.000  1.00  0.00     0.028 A 
HETATM   16  N   UNL     1     -10.549  -3.934   0.000  1.00  0.00     0.616 N 
ENDROOT
TORSDOF 0
