REMARK  1 active torsions:
REMARK  status: ('A' for Active; 'I' for Inactive)
REMARK    1  A    between atoms: N_3  and  C_12 
ROOT
HETATM    1  O   UNL     1       0.129  -5.776   0.000  1.00  0.00    -0.191 OA
HETATM    2  O   UNL     1       0.129 -11.776   0.000  1.00  0.00    -0.191 OA
HETATM    3  C   UNL     1       2.728  -7.276   0.000  1.00  0.00     0.058 A 
HETATM    4  C   UNL     1       4.027  -8.026   0.000  1.00  0.00     0.046 A 
HETATM    5  C   UNL     1       1.429  -8.026   0.000  1.00  0.00     0.036 A 
HETATM    6  C   UNL     1       0.129  -7.276   0.000  1.00  0.00     0.128 A 
HETATM    7  C   UNL     1      -1.170  -8.026   0.000  1.00  0.00     0.001 A 
HETATM    8  C   UNL     1      -2.469  -7.276   0.000  1.00  0.00     0.028 A 
HETATM    9  C   UNL     1      -3.768  -8.026   0.000  1.00  0.00     0.005 A 
HETATM   10  C   UNL     1       4.027  -9.526   0.000  1.00  0.00     0.011 A 
HETATM   11  C   UNL     1       1.429  -9.526   0.000  1.00  0.00     0.006 A 
HETATM   12  C   UNL     1      -1.170  -9.526   0.000  1.00  0.00     0.001 A 
HETATM   13  C   UNL     1      -3.768  -9.526   0.000  1.00  0.00     0.005 A 
HETATM   14  C   UNL     1       2.728 -10.276   0.000  1.00  0.00     0.029 A 
HETATM   15  C   UNL     1       0.129 -10.276   0.000  1.00  0.00     0.123 A 
HETATM   16  C   UNL     1      -2.469 -10.276   0.000  1.00  0.00     0.028 A 
ENDROOT
BRANCH   3  17
HETATM   17  N   UNL     1       2.728  -5.776   0.000  1.00  0.00    -0.242 N 
HETATM   18  N   UNL     1       1.514  -4.894   0.000  1.00  0.00     0.010 NA
HETATM   19  N   UNL     1       1.978  -3.468   0.000  1.00  0.00    -0.161 NA
HETATM   20  C   UNL     1       3.478  -3.468   0.000  1.00  0.00     0.089 A 
HETATM   21  C   UNL     1       4.481  -2.353   0.000  1.00  0.00     0.048 A 
HETATM   22  C   UNL     1       3.941  -4.894   0.000  1.00  0.00     0.071 A 
HETATM   23  C   UNL     1       5.948  -2.665   0.000  1.00  0.00     0.007 A 
HETATM   24  C   UNL     1       6.412  -4.091   0.000  1.00  0.00     0.007 A 
HETATM   25  C   UNL     1       5.408  -5.206   0.000  1.00  0.00     0.047 A 
ENDBRANCH   3  17
TORSDOF 1
