REMARK  8 active torsions:
REMARK  status: ('A' for Active; 'I' for Inactive)
REMARK    1  A    between atoms: O_1  and  C_12 
REMARK    2  A    between atoms: O_1  and  C_16 
REMARK    3  A    between atoms: C_3  and  N_36 
REMARK    4  A    between atoms: C_5  and  N_37 
REMARK    5  A    between atoms: C_10  and  N_33 
REMARK    6  A    between atoms: C_18  and  N_32 
REMARK    7  A    between atoms: C_22  and  N_29 
REMARK    8  A    between atoms: C_24  and  N_26 
REMARK       I    between atoms: N_29  and  C_30 
REMARK       I    between atoms: C_30  and  N_32 
REMARK       I    between atoms: N_33  and  C_34 
REMARK       I    between atoms: C_34  and  N_36 
ROOT
HETATM    1  O   UNL     1      -4.272  -8.899   0.000  1.00  0.00    -0.359 OA
ENDROOT
BRANCH   1   2
HETATM    2  C   UNL     1      -4.272 -10.399   0.000  1.00  0.00     0.116 A 
HETATM    3  C   UNL     1      -2.973 -11.149   0.000  1.00  0.00     0.036 A 
HETATM    4  C   UNL     1      -2.973 -12.649   0.000  1.00  0.00     0.044 A 
HETATM    5  C   UNL     1      -4.272 -13.399   0.000  1.00  0.00     0.041 A 
HETATM    6  C   UNL     1      -5.571 -12.649   0.000  1.00  0.00     0.044 A 
HETATM    7  C   UNL     1      -5.571 -11.149   0.000  1.00  0.00     0.036 A 
BRANCH   5   8
HETATM    8  N   UNL     1      -4.272 -14.899   0.000  1.00  0.00    -0.212 NA
HETATM    9  C   UNL     1      -2.973 -15.649   0.000  1.00  0.00     0.299 C 
HETATM   10  O   UNL     1      -2.973 -17.149   0.000  1.00  0.00    -0.147 OA
HETATM   11  N   UNL     1      -1.674 -14.899   0.000  1.00  0.00    -0.212 NA
BRANCH  11  12
HETATM   12  C   UNL     1      -0.375 -15.649   0.000  1.00  0.00     0.041 A 
HETATM   13  C   UNL     1       0.924 -14.899   0.000  1.00  0.00     0.048 A 
HETATM   14  C   UNL     1       2.223 -15.649   0.000  1.00  0.00     0.052 A 
HETATM   15  C   UNL     1       2.223 -17.149   0.000  1.00  0.00     0.083 A 
HETATM   16  C   UNL     1       0.924 -17.899   0.000  1.00  0.00     0.052 A 
HETATM   17  C   UNL     1      -0.375 -17.149   0.000  1.00  0.00     0.048 A 
BRANCH  15  18
HETATM   18  N   UNL     1       3.522 -17.899   0.000  1.00  0.00    -0.122 N 
HETATM   19  O   UNL     1       4.821 -17.149   0.000  1.00  0.00    -0.532 OA
HETATM   20  O   UNL     1       3.522 -19.399   0.000  1.00  0.00    -0.532 OA
ENDBRANCH  15  18
ENDBRANCH  11  12
ENDBRANCH   5   8
ENDBRANCH   1   2
BRANCH   1  21
HETATM   21  C   UNL     1      -2.973  -8.149   0.000  1.00  0.00     0.116 A 
HETATM   22  C   UNL     1      -1.674  -8.899   0.000  1.00  0.00     0.036 A 
HETATM   23  C   UNL     1      -0.375  -8.149   0.000  1.00  0.00     0.044 A 
HETATM   24  C   UNL     1      -0.375  -6.649   0.000  1.00  0.00     0.041 A 
HETATM   25  C   UNL     1      -1.674  -5.899   0.000  1.00  0.00     0.044 A 
HETATM   26  C   UNL     1      -2.973  -6.649   0.000  1.00  0.00     0.036 A 
BRANCH  24  27
HETATM   27  N   UNL     1       0.924  -5.899   0.000  1.00  0.00    -0.212 NA
HETATM   28  C   UNL     1       0.924  -4.399   0.000  1.00  0.00     0.299 C 
HETATM   29  N   UNL     1       2.223  -3.650   0.000  1.00  0.00    -0.212 NA
HETATM   30  O   UNL     1      -0.375  -3.650   0.000  1.00  0.00    -0.147 OA
BRANCH  29  31
HETATM   31  C   UNL     1       3.522  -4.399   0.000  1.00  0.00     0.041 A 
HETATM   32  C   UNL     1       3.522  -5.899   0.000  1.00  0.00     0.048 A 
HETATM   33  C   UNL     1       4.821  -6.649   0.000  1.00  0.00     0.052 A 
HETATM   34  C   UNL     1       6.120  -5.899   0.000  1.00  0.00     0.083 A 
HETATM   35  C   UNL     1       6.120  -4.399   0.000  1.00  0.00     0.052 A 
HETATM   36  C   UNL     1       4.821  -3.650   0.000  1.00  0.00     0.048 A 
BRANCH  34  37
HETATM   37  N   UNL     1       7.419  -6.649   0.000  1.00  0.00    -0.122 N 
HETATM   38  O   UNL     1       7.419  -8.149   0.000  1.00  0.00    -0.532 OA
HETATM   39  O   UNL     1       8.718  -5.899   0.000  1.00  0.00    -0.532 OA
ENDBRANCH  34  37
ENDBRANCH  29  31
ENDBRANCH  24  27
ENDBRANCH   1  21
TORSDOF 8
