REMARK  6 active torsions:
REMARK  status: ('A' for Active; 'I' for Inactive)
REMARK    1  A    between atoms: O_2  and  C_14 
REMARK    2  A    between atoms: O_2  and  C_18 
REMARK    3  A    between atoms: C_11  and  N_32 
REMARK    4  A    between atoms: C_20  and  N_31 
REMARK    5  A    between atoms: C_24  and  N_28 
REMARK       I    between atoms: N_28  and  C_29 
REMARK       I    between atoms: C_29  and  N_31 
REMARK    6  A    between atoms: N_32  and  C_33 
ROOT
HETATM    1  O   UNL     1      -4.922 -10.024   0.000  1.00  0.00    -0.359 OA
ENDROOT
BRANCH   1   2
HETATM    2  C   UNL     1      -4.922 -11.524   0.000  1.00  0.00     0.116 A 
HETATM    3  C   UNL     1      -3.623 -12.274   0.000  1.00  0.00     0.036 A 
HETATM    4  C   UNL     1      -3.623 -13.774   0.000  1.00  0.00     0.044 A 
HETATM    5  C   UNL     1      -4.922 -14.524   0.000  1.00  0.00     0.041 A 
HETATM    6  C   UNL     1      -6.221 -13.774   0.000  1.00  0.00     0.044 A 
HETATM    7  C   UNL     1      -6.221 -12.274   0.000  1.00  0.00     0.036 A 
BRANCH   5   8
HETATM    8  N   UNL     1      -4.922 -16.024   0.000  1.00  0.00    -0.213 NA
BRANCH   8   9
HETATM    9  C   UNL     1      -3.623 -16.774   0.000  1.00  0.00     0.285 A 
HETATM   10  O   UNL     1      -3.623 -18.274   0.000  1.00  0.00    -0.213 OA
HETATM   11 CL   UNL     1      -2.324 -19.024   0.000  1.00  0.00    -0.018 Cl
HETATM   12  C   UNL     1      -1.024 -18.274   0.000  1.00  0.00     0.062 A 
HETATM   13  C   UNL     1      -1.024 -16.774   0.000  1.00  0.00     0.070 A 
HETATM   14  C   UNL     1       0.275 -19.024   0.000  1.00  0.00     0.040 A 
HETATM   15  C   UNL     1       0.275 -16.024   0.000  1.00  0.00     0.046 A 
HETATM   16  N   UNL     1      -2.324 -16.024   0.000  1.00  0.00    -0.208 NA
HETATM   17  C   UNL     1       1.574 -16.774   0.000  1.00  0.00     0.007 A 
HETATM   18  C   UNL     1       1.574 -18.274   0.000  1.00  0.00     0.006 A 
ENDBRANCH   8   9
ENDBRANCH   5   8
ENDBRANCH   1   2
BRANCH   1  19
HETATM   19  C   UNL     1      -3.623  -9.274   0.000  1.00  0.00     0.116 A 
HETATM   20  C   UNL     1      -2.324 -10.024   0.000  1.00  0.00     0.036 A 
HETATM   21  C   UNL     1      -1.024  -9.274   0.000  1.00  0.00     0.044 A 
HETATM   22  C   UNL     1      -1.024  -7.774   0.000  1.00  0.00     0.041 A 
HETATM   23  C   UNL     1      -2.324  -7.024   0.000  1.00  0.00     0.044 A 
HETATM   24  C   UNL     1      -3.623  -7.774   0.000  1.00  0.00     0.036 A 
BRANCH  22  25
HETATM   25  N   UNL     1       0.275  -7.024   0.000  1.00  0.00    -0.212 NA
HETATM   26  C   UNL     1       0.275  -5.524   0.000  1.00  0.00     0.299 C 
HETATM   27  N   UNL     1       1.573  -4.774   0.000  1.00  0.00    -0.207 NA
HETATM   28  O   UNL     1      -1.024  -4.774   0.000  1.00  0.00    -0.147 OA
BRANCH  27  29
HETATM   29  C   UNL     1       2.873  -5.524   0.000  1.00  0.00     0.069 A 
HETATM   30  C   UNL     1       2.873  -7.024   0.000  1.00  0.00     0.046 A 
HETATM   31  C   UNL     1       4.172  -7.774   0.000  1.00  0.00     0.007 A 
HETATM   32  C   UNL     1       5.471  -7.024   0.000  1.00  0.00     0.006 A 
HETATM   33  C   UNL     1       5.471  -5.524   0.000  1.00  0.00     0.039 A 
HETATM   34  C   UNL     1       4.172  -4.774   0.000  1.00  0.00     0.049 A 
HETATM   35 CL   UNL     1       4.172  -3.275   0.000  1.00  0.00    -0.086 Cl
ENDBRANCH  27  29
ENDBRANCH  22  25
ENDBRANCH   1  19
TORSDOF 6
