REMARK  1 active torsions:
REMARK  status: ('A' for Active; 'I' for Inactive)
REMARK    1  A    between atoms: C_5  and  N_8 
ROOT
HETATM    1  C   UNL     1      -5.524   0.275   0.000  1.00  0.00     0.066 A 
HETATM    2  C   UNL     1      -4.024   0.275   0.000  1.00  0.00     0.073 A 
HETATM    3  N   UNL     1      -5.524   2.873   0.000  1.00  0.00    -0.164 N 
HETATM    4  C   UNL     1      -6.274   1.574   0.000  1.00  0.00     0.208 A 
HETATM    5  O   UNL     1      -7.774   1.574   0.000  1.00  0.00    -0.170 OA
HETATM    6  C   UNL     1      -3.275   1.574   0.000  1.00  0.00     0.241 A 
HETATM    7  O   UNL     1      -1.774   1.574   0.000  1.00  0.00    -0.162 OA
HETATM    8  O   UNL     1      -4.024   2.873   0.000  1.00  0.00    -0.198 OA
ENDROOT
BRANCH   3   9
HETATM    9  C   UNL     1      -6.274   4.172   0.000  1.00  0.00     0.193 A 
HETATM   10  S   UNL     1      -5.664   5.542   0.000  1.00  0.00    -0.073 SA
HETATM   11  C   UNL     1      -6.779   6.546   0.000  1.00  0.00     0.091 A 
HETATM   12  C   UNL     1      -8.078   5.796   0.000  1.00  0.00     0.140 A 
HETATM   13  N   UNL     1      -7.766   4.328   0.000  1.00  0.00    -0.246 NA
ENDBRANCH   3   9
TORSDOF 1
