REMARK  0 active torsions:
REMARK  status: ('A' for Active; 'I' for Inactive)
ROOT
HETATM    1  C   UNL     1       4.272   4.399   0.000  1.00  0.00     0.005 A 
HETATM    2  C   UNL     1       2.973   3.650   0.000  1.00  0.00     0.005 A 
HETATM    3  C   UNL     1       5.571   3.650   0.000  1.00  0.00     0.026 A 
HETATM    4  C   UNL     1       5.571   2.150   0.000  1.00  0.00    -0.025 A 
HETATM    5  C   UNL     1       2.973   2.150   0.000  1.00  0.00     0.030 A 
HETATM    6  C   UNL     1       4.272   1.399   0.000  1.00  0.00     0.017 A 
HETATM    7  C   UNL     1       6.870  -0.101   0.000  1.00  0.00     0.075 A 
HETATM    8  C   UNL     1       8.169  -0.851   0.000  1.00  0.00    -0.013 A 
HETATM    9  C   UNL     1       6.870   1.399   0.000  1.00  0.00    -0.009 A 
HETATM   10  C   UNL     1       8.169  -2.350   0.000  1.00  0.00     0.027 A 
HETATM   11  C   UNL     1       9.468  -3.100   0.000  1.00  0.00     0.005 A 
HETATM   12  C   UNL     1       8.169   2.150   0.000  1.00  0.00     0.032 A 
HETATM   13  C   UNL     1       9.468  -0.101   0.000  1.00  0.00    -0.046 A 
HETATM   14  C   UNL     1      10.767  -2.350   0.000  1.00  0.00     0.005 A 
HETATM   15  C   UNL     1       9.468   1.399   0.000  1.00  0.00     0.026 A 
HETATM   16  C   UNL     1      10.767  -0.851   0.000  1.00  0.00     0.022 A 
HETATM   17  C   UNL     1       4.272  -0.101   0.000  1.00  0.00     0.208 A 
HETATM   18  O   UNL     1       2.973  -0.851   0.000  1.00  0.00    -0.170 OA
HETATM   19  N   UNL     1       5.571  -0.851   0.000  1.00  0.00    -0.221 NA
ENDROOT
TORSDOF 0
