REMARK  1 active torsions:
REMARK  status: ('A' for Active; 'I' for Inactive)
REMARK    1  A    between atoms: N_2  and  C_21 
ROOT
HETATM    1  N   UNL     1     -12.959  -0.191   0.000  1.00  0.00    -0.113 NA
HETATM    2  N   UNL     1     -12.959  -1.691   0.000  1.00  0.00    -0.267 N 
HETATM    3  C   UNL     1      -2.647  -3.402   0.000  1.00  0.00     0.068 A 
HETATM    4  C   UNL     1      -4.074  -2.938   0.000  1.00  0.00     0.044 A 
HETATM    5  C   UNL     1      -2.647  -4.902   0.000  1.00  0.00    -0.062 A 
HETATM    6  C   UNL     1      -4.684  -1.568   0.000  1.00  0.00    -0.014 A 
HETATM    7  C   UNL     1      -6.176  -1.411   0.000  1.00  0.00     0.128 A 
HETATM    8  C   UNL     1      -4.074  -5.365   0.000  1.00  0.00     0.012 A 
HETATM    9  C   UNL     1      -4.955  -4.152   0.000  1.00  0.00     0.023 A 
HETATM   10  C   UNL     1      -7.057  -2.625   0.000  1.00  0.00     0.083 A 
HETATM   11  C   UNL     1      -6.447  -3.995   0.000  1.00  0.00     0.018 A 
HETATM   12  C   UNL     1      -8.549  -2.468   0.000  1.00  0.00     0.058 A 
HETATM   13  C   UNL     1      -9.159  -1.098   0.000  1.00  0.00    -0.016 A 
HETATM   14  C   UNL     1     -10.651  -0.941   0.000  1.00  0.00     0.005 A 
HETATM   15  C   UNL     1     -11.533   0.273   0.000  1.00  0.00     0.141 A 
HETATM   16  C   UNL     1      -7.329  -5.209   0.000  1.00  0.00     0.015 A 
HETATM   17  C   UNL     1      -9.431  -3.682   0.000  1.00  0.00    -0.041 A 
HETATM   18  C   UNL     1     -11.533  -2.154   0.000  1.00  0.00     0.055 A 
HETATM   19  C   UNL     1      -8.821  -5.052   0.000  1.00  0.00    -0.051 A 
HETATM   20  C   UNL     1     -10.923  -3.525   0.000  1.00  0.00     0.067 A 
HETATM   21  O   UNL     1      -6.786  -0.041   0.000  1.00  0.00    -0.354 OA
HETATM   22  C   UNL     1      -7.668  -1.254   0.000  1.00  0.00     0.114 A 
HETATM   23  C   UNL     1      -9.702  -6.265   0.000  1.00  0.00     0.026 C 
HETATM   24  C   UNL     1      -3.070  -1.824   0.000  1.00  0.00     0.114 A 
HETATM   25  C   UNL     1      -1.852  -2.130   0.000  1.00  0.00     0.122 A 
HETATM   26  O   UNL     1      -2.557  -0.805   0.000  1.00  0.00    -0.357 OA
HETATM   27  C   UNL     1      -0.353  -2.182   0.000  1.00  0.00     0.033 A 
HETATM   28  O   UNL     1      -1.155  -3.559   0.000  1.00  0.00     0.000 OA
HETATM   29  C   UNL     1      -1.434  -5.784   0.000  1.00  0.00     0.022 C 
ENDROOT
BRANCH   2  30
HETATM   30  C   UNL     1     -14.173  -2.573   0.000  1.00  0.00     0.032 A 
HETATM   31  C   UNL     1     -14.016  -4.064   0.000  1.00  0.00     0.041 A 
HETATM   32  C   UNL     1     -15.229  -4.946   0.000  1.00  0.00     0.006 A 
HETATM   33  C   UNL     1     -16.600  -4.336   0.000  1.00  0.00     0.001 A 
HETATM   34  C   UNL     1     -16.757  -2.844   0.000  1.00  0.00     0.006 A 
HETATM   35  C   UNL     1     -15.543  -1.962   0.000  1.00  0.00     0.041 A 
ENDBRANCH   2  30
TORSDOF 1
