REMARK  3 active torsions:
REMARK  status: ('A' for Active; 'I' for Inactive)
REMARK    1  A    between atoms: C_10  and  C_17 
REMARK    2  A    between atoms: C_14  and  C_18 
REMARK    3  A    between atoms: C_17  and  C_18 
ROOT
HETATM    1  S   UNL     1      -8.119  -8.554   0.000  1.00  0.00    -0.040 SA
HETATM    2  H   UNL     1      -8.119  -5.554   0.000  1.00  0.00     0.170 HD
HETATM    3  N   UNL     1      -6.820  -6.304   0.000  1.00  0.00    -0.311 N 
HETATM    4  N   UNL     1      -5.521  -8.554   0.000  1.00  0.00    -0.335 N 
HETATM    5  O   UNL     1      -5.521  -4.054   0.000  1.00  0.00    -0.171 OA
HETATM    6  H   UNL     1      -5.521 -10.054   0.000  1.00  0.00     0.168 HD
HETATM    7  C   UNL     1      -5.521  -5.554   0.000  1.00  0.00     0.190 A 
HETATM    8  C   UNL     1      -4.222  -6.304   0.000  1.00  0.00     0.031 A 
HETATM    9  C   UNL     1      -4.222  -7.804   0.000  1.00  0.00     0.035 A 
HETATM   10  C   UNL     1      -6.820  -7.804   0.000  1.00  0.00     0.178 A 
HETATM   11  C   UNL     1      -2.923  -8.554   0.000  1.00  0.00     0.050 C 
ENDROOT
BRANCH   8  12
HETATM   12  C   UNL     1      -2.923  -5.554   0.000  1.00  0.00     0.036 C 
BRANCH  12  13
HETATM   13  C   UNL     1      -2.923  -4.054   0.000  1.00  0.00     0.066 C 
BRANCH  13  14
HETATM   14  C   UNL     1      -1.624  -3.304   0.000  1.00  0.00     0.236 A 
HETATM   15  O   UNL     1      -0.254  -3.914   0.000  1.00  0.00    -0.328 OA
HETATM   16  C   UNL     1       0.750  -2.799   0.000  1.00  0.00     0.177 A 
HETATM   17  C   UNL     1       0.000  -1.500   0.000  1.00  0.00     0.177 A 
HETATM   18  O   UNL     1      -1.467  -1.812   0.000  1.00  0.00    -0.328 OA
ENDBRANCH  13  14
ENDBRANCH  12  13
ENDBRANCH   8  12
TORSDOF 3
