REMARK  0 active torsions:
REMARK  status: ('A' for Active; 'I' for Inactive)
ROOT
HETATM    1 CL   UNL     1      -6.020  -6.074   0.000  1.00  0.00    -0.091 Cl
HETATM    2  C   UNL     1      -3.422  -3.074   0.000  1.00  0.00     0.045 A 
HETATM    3  C   UNL     1      -4.721  -3.824   0.000  1.00  0.00     0.039 A 
HETATM    4  C   UNL     1      -2.123  -3.824   0.000  1.00  0.00     0.089 A 
HETATM    5  C   UNL     1      -2.123  -5.324   0.000  1.00  0.00     0.107 A 
HETATM    6  C   UNL     1      -4.721  -5.324   0.000  1.00  0.00     0.020 A 
HETATM    7  C   UNL     1      -3.422  -6.074   0.000  1.00  0.00     0.083 A 
HETATM    8  S   UNL     1      -0.824  -3.074   0.000  1.00  0.00     0.246 S 
HETATM    9  O   UNL     1      -1.574  -1.774   0.000  1.00  0.00    -0.210 OA
HETATM   10  O   UNL     1      -0.073  -4.373   0.000  1.00  0.00    -0.091 OA
HETATM   11  N   UNL     1       0.475  -2.324   0.000  1.00  0.00    -0.055 N 
HETATM   12  N   UNL     1      -0.824  -6.074   0.000  1.00  0.00    -0.061 N 
HETATM   13  O   UNL     1       0.475  -5.324   0.000  1.00  0.00    -0.065 OA
HETATM   14  O   UNL     1      -0.824  -7.574   0.000  1.00  0.00    -0.055 OA
ENDROOT
TORSDOF 0
