REMARK  0 active torsions:
REMARK  status: ('A' for Active; 'I' for Inactive)
ROOT
HETATM    1  N   UNL     1       5.439   0.726   0.000  1.00  0.00    -0.273 N 
HETATM    2  C   UNL     1       5.439   3.726   0.000  1.00  0.00     0.135 A 
HETATM    3  C   UNL     1       6.738   2.976   0.000  1.00  0.00     0.090 A 
HETATM    4  C   UNL     1       6.738   1.476   0.000  1.00  0.00     0.123 A 
HETATM    5  C   UNL     1       4.140   1.476   0.000  1.00  0.00     0.123 A 
HETATM    6  C   UNL     1       2.841   0.726   0.000  1.00  0.00     0.090 A 
HETATM    7  C   UNL     1       2.841  -0.774   0.000  1.00  0.00     0.135 A 
HETATM    8  C   UNL     1       8.037  -0.774   0.000  1.00  0.00     0.135 A 
HETATM    9  C   UNL     1       6.738  -1.524   0.000  1.00  0.00     0.090 A 
HETATM   10  C   UNL     1       5.439  -0.774   0.000  1.00  0.00     0.123 A 
HETATM   11  N   UNL     1       8.037   0.726   0.000  1.00  0.00    -0.257 NA
HETATM   12  N   UNL     1       4.140  -1.524   0.000  1.00  0.00    -0.257 NA
HETATM   13  N   UNL     1       4.140   2.976   0.000  1.00  0.00    -0.257 NA
ENDROOT
TORSDOF 0
