REMARK  1 active torsions:
REMARK  status: ('A' for Active; 'I' for Inactive)
REMARK    1  A    between atoms: C_12  and  O_23 
ROOT
HETATM    1  N   UNL     1      -8.946   5.061   0.000  1.00  0.00    -0.359 N 
HETATM    2  H   UNL     1      -9.410   3.634   0.000  1.00  0.00     0.165 HD
HETATM    3  N   UNL     1      -4.922   5.524   0.000  1.00  0.00    -0.373 N 
HETATM    4  C   UNL     1      -6.221   7.774   0.000  1.00  0.00     0.051 A 
HETATM    5  C   UNL     1      -7.520   7.024   0.000  1.00  0.00    -0.011 A 
HETATM    6  C   UNL     1      -4.922   7.024   0.000  1.00  0.00     0.102 A 
HETATM    7  C   UNL     1      -7.520   5.524   0.000  1.00  0.00     0.041 A 
HETATM    8  C   UNL     1      -8.946   7.488   0.000  1.00  0.00    -0.013 A 
HETATM    9  C   UNL     1      -9.556   8.858   0.000  1.00  0.00     0.030 A 
HETATM   10  C   UNL     1     -11.048   9.015   0.000  1.00  0.00     0.035 A 
HETATM   11  C   UNL     1      -9.828   6.274   0.000  1.00  0.00     0.032 A 
HETATM   12  C   UNL     1     -11.930   7.802   0.000  1.00  0.00     0.122 A 
HETATM   13  C   UNL     1      -6.221   4.774   0.000  1.00  0.00     0.142 A 
HETATM   14  C   UNL     1     -11.320   6.431   0.000  1.00  0.00     0.073 A 
HETATM   15  C   UNL     1      -6.221   3.275   0.000  1.00  0.00     0.017 A 
HETATM   16  C   UNL     1      -4.922   2.525   0.000  1.00  0.00     0.047 A 
HETATM   17  C   UNL     1      -3.623   4.774   0.000  1.00  0.00     0.091 A 
HETATM   18  C   UNL     1      -3.623   3.275   0.000  1.00  0.00     0.046 A 
HETATM   19  C   UNL     1      -2.324   2.525   0.000  1.00  0.00     0.052 A 
HETATM   20  C   UNL     1      -2.324   1.024   0.000  1.00  0.00     0.130 A 
HETATM   21  C   UNL     1      -4.922   1.024   0.000  1.00  0.00     0.044 A 
HETATM   22  C   UNL     1      -3.623   0.275   0.000  1.00  0.00     0.117 A 
HETATM   23  C   UNL     1      -6.221   0.275   0.000  1.00  0.00     0.228 A 
HETATM   24  O   UNL     1      -7.520   1.024   0.000  1.00  0.00    -0.164 OA
HETATM   25  O   UNL     1      -6.221  -1.226   0.000  1.00  0.00    -0.278 OA
HETATM   26  O   UNL     1      -3.623  -1.226   0.000  1.00  0.00    -0.300 OA
HETATM   27  C   UNL     1      -4.922  -1.976   0.000  1.00  0.00     0.305 A 
HETATM   28  O   UNL     1      -1.024   0.275   0.000  1.00  0.00    -0.193 OA
ENDROOT
BRANCH  12  29
HETATM   29  O   UNL     1     -13.422   7.958   0.000  1.00  0.00    -0.354 OA
HETATM   30  C   UNL     1     -14.032   9.329   0.000  1.00  0.00     0.174 C 
ENDBRANCH  12  29
TORSDOF 1
