REMARK  3 active torsions:
REMARK  status: ('A' for Active; 'I' for Inactive)
REMARK    1  A    between atoms: C_16  and  C_22 
REMARK    2  A    between atoms: C_17  and  S_21 
REMARK    3  A    between atoms: S_21  and  C_22 
ROOT
HETATM    1  O   UNL     1       0.750   2.250   0.000  1.00  0.00    -0.151 OA
HETATM    2  H   UNL     1       0.750   5.250   0.000  1.00  0.00     0.171 HD
HETATM    3  N   UNL     1       2.049   4.500   0.000  1.00  0.00    -0.296 N 
HETATM    4  O   UNL     1       3.348   6.750   0.000  1.00  0.00    -0.169 OA
HETATM    5  N   UNL     1       3.348   2.250   0.000  1.00  0.00    -0.275 N 
HETATM    6  N   UNL     1       6.074   4.963   0.000  1.00  0.00    -0.301 N 
HETATM    7  N   UNL     1       6.074   2.537   0.000  1.00  0.00    -0.204 NA
HETATM    8  C   UNL     1       3.348   5.250   0.000  1.00  0.00     0.213 A 
HETATM    9  C   UNL     1       4.647   4.500   0.000  1.00  0.00     0.139 A 
HETATM   10  C   UNL     1       4.647   3.000   0.000  1.00  0.00     0.168 A 
HETATM   11  C   UNL     1       6.955   3.750   0.000  1.00  0.00     0.173 A 
HETATM   12  C   UNL     1       2.049   3.000   0.000  1.00  0.00     0.262 A 
HETATM   13  C   UNL     1       3.348   0.750   0.000  1.00  0.00     0.136 C 
HETATM   14  C   UNL     1       6.537   6.390   0.000  1.00  0.00     0.133 C 
ENDROOT
BRANCH  11  15
HETATM   15  S   UNL     1       8.455   3.750   0.000  1.00  0.00    -0.071 SA
BRANCH  15  16
HETATM   16  C   UNL     1       9.205   5.049   0.000  1.00  0.00     0.106 C 
BRANCH  16  17
HETATM   17  C   UNL     1      10.705   5.049   0.000  1.00  0.00     0.043 A 
HETATM   18  N   UNL     1      11.455   6.348   0.000  1.00  0.00    -0.278 NA
HETATM   19  C   UNL     1      12.955   6.348   0.000  1.00  0.00     0.125 A 
HETATM   20  C   UNL     1      13.705   5.049   0.000  1.00  0.00     0.027 A 
HETATM   21  C   UNL     1      12.955   3.750   0.000  1.00  0.00     0.008 A 
HETATM   22  C   UNL     1      11.455   3.750   0.000  1.00  0.00     0.042 A 
ENDBRANCH  16  17
ENDBRANCH  15  16
ENDBRANCH  11  15
TORSDOF 3
