REMARK  2 active torsions:
REMARK  status: ('A' for Active; 'I' for Inactive)
REMARK    1  A    between atoms: N_2  and  C_14 
REMARK    2  A    between atoms: C_5  and  C_11 
ROOT
HETATM    1  S   UNL     1      -1.886   0.837   0.000  1.00  0.00    -0.181 SA
HETATM    2  N   UNL     1       0.541   0.849   0.000  1.00  0.00    -0.314 N 
HETATM    3  C   UNL     1      -0.677   1.725   0.000  1.00  0.00     0.101 A 
HETATM    4  C   UNL     1       0.084  -0.580   0.000  1.00  0.00     0.109 A 
HETATM    5  C   UNL     1      -1.416  -0.587   0.000  1.00  0.00     0.074 A 
HETATM    6  C   UNL     1      -2.882  -0.906   0.000  1.00  0.00     0.057 A 
HETATM    7  C   UNL     1      -1.252  -2.078   0.000  1.00  0.00     0.016 C 
HETATM    8  C   UNL     1      -1.685   2.835   0.000  1.00  0.00     0.072 A 
HETATM    9  C   UNL     1       0.322   2.844   0.000  1.00  0.00     0.033 C 
ENDROOT
BRANCH   4  10
HETATM   10  C   UNL     1       0.971  -1.790   0.000  1.00  0.00     0.224 C 
HETATM   11  O   UNL     1       2.462  -1.626   0.000  1.00  0.00    -0.643 OA
HETATM   12  O   UNL     1       0.367  -3.163   0.000  1.00  0.00    -0.643 OA
ENDBRANCH   4  10
BRANCH   2  13
HETATM   13  C   UNL     1       1.965   1.319   0.000  1.00  0.00     0.289 C 
HETATM   14  O   UNL     1       3.085   0.320   0.000  1.00  0.00    -0.193 OA
ENDBRANCH   2  13
TORSDOF 2
