REMARK  4 active torsions:
REMARK  status: ('A' for Active; 'I' for Inactive)
REMARK    1  A    between atoms: C_13  and  N_22 
REMARK    2  A    between atoms: C_14  and  C_23 
REMARK    3  A    between atoms: C_17  and  C_21 
REMARK    4  A    between atoms: C_21  and  N_22 
ROOT
HETATM    1  O   UNL     1       0.750   2.250   0.000  1.00  0.00    -0.150 OA
HETATM    2  N   UNL     1       2.049   4.500   0.000  1.00  0.00    -0.268 N 
HETATM    3  O   UNL     1       3.348   6.750   0.000  1.00  0.00    -0.169 OA
HETATM    4  N   UNL     1       3.348   2.250   0.000  1.00  0.00    -0.275 N 
HETATM    5  N   UNL     1       6.074   4.963   0.000  1.00  0.00    -0.335 N 
HETATM    6  H   UNL     1       6.537   6.390   0.000  1.00  0.00     0.167 HD
HETATM    7  N   UNL     1       6.074   2.537   0.000  1.00  0.00    -0.212 NA
HETATM    8  C   UNL     1       3.348   5.250   0.000  1.00  0.00     0.216 A 
HETATM    9  C   UNL     1       4.647   4.500   0.000  1.00  0.00     0.135 A 
HETATM   10  C   UNL     1       4.647   3.000   0.000  1.00  0.00     0.167 A 
HETATM   11  C   UNL     1       6.955   3.750   0.000  1.00  0.00     0.144 A 
HETATM   12  C   UNL     1       2.049   3.000   0.000  1.00  0.00     0.266 A 
HETATM   13  C   UNL     1       0.750   5.250   0.000  1.00  0.00     0.136 C 
HETATM   14  C   UNL     1       3.348   0.750   0.000  1.00  0.00     0.136 C 
ENDROOT
BRANCH  11  15
HETATM   15  C   UNL     1       8.455   3.750   0.000  1.00  0.00     0.188 C 
BRANCH  15  16
HETATM   16  N   UNL     1       9.205   5.049   0.000  1.00  0.00    -0.271 NA
BRANCH  16  17
HETATM   17  C   UNL     1      10.705   5.049   0.000  1.00  0.00     0.032 A 
HETATM   18  C   UNL     1      11.455   6.348   0.000  1.00  0.00     0.042 A 
HETATM   19  C   UNL     1      12.955   6.348   0.000  1.00  0.00     0.017 A 
HETATM   20  C   UNL     1      13.705   5.049   0.000  1.00  0.00     0.088 A 
HETATM   21  C   UNL     1      12.955   3.750   0.000  1.00  0.00     0.017 A 
HETATM   22  C   UNL     1      11.455   3.750   0.000  1.00  0.00     0.042 A 
BRANCH  20  23
HETATM   23  C   UNL     1      15.205   5.049   0.000  1.00  0.00     0.185 C 
HETATM   24  O   UNL     1      15.955   6.348   0.000  1.00  0.00    -0.647 OA
HETATM   25  O   UNL     1      15.955   3.750   0.000  1.00  0.00    -0.647 OA
ENDBRANCH  20  23
ENDBRANCH  16  17
ENDBRANCH  15  16
ENDBRANCH  11  15
TORSDOF 4
