REMARK  3 active torsions:
REMARK  status: ('A' for Active; 'I' for Inactive)
REMARK    1  A    between atoms: C_5  and  N_15 
REMARK    2  A    between atoms: C_11  and  N_19 
REMARK    3  A    between atoms: C_14  and  N_18 
REMARK       I    between atoms: N_15  and  C_16 
REMARK       I    between atoms: C_16  and  N_18 
ROOT
HETATM    1  N   UNL     1       5.946  -9.750   0.000  1.00  0.00    -0.212 NA
HETATM    2  C   UNL     1       5.946  -8.250   0.000  1.00  0.00     0.301 C 
HETATM    3  O   UNL     1       7.245  -7.500   0.000  1.00  0.00    -0.147 OA
HETATM    4  N   UNL     1       4.647  -7.500   0.000  1.00  0.00    -0.189 NA
ENDROOT
BRANCH   1   5
HETATM    5  C   UNL     1       4.647 -10.500   0.000  1.00  0.00     0.046 A 
HETATM    6  C   UNL     1       3.348  -9.750   0.000  1.00  0.00     0.080 A 
HETATM    7  C   UNL     1       2.049 -10.500   0.000  1.00  0.00     0.048 A 
HETATM    8 CL   UNL     1       0.750  -9.750   0.000  1.00  0.00    -0.086 Cl
HETATM    9  C   UNL     1       2.049 -12.000   0.000  1.00  0.00     0.043 A 
HETATM   10 CL   UNL     1       0.750 -12.750   0.000  1.00  0.00    -0.086 Cl
HETATM   11  C   UNL     1       3.348 -12.750   0.000  1.00  0.00     0.044 A 
HETATM   12  C   UNL     1       4.647 -12.000   0.000  1.00  0.00     0.047 A 
ENDBRANCH   1   5
BRANCH   4  13
HETATM   13  C   UNL     1       4.647  -6.000   0.000  1.00  0.00     0.139 A 
HETATM   14  N   UNL     1       3.348  -5.250   0.000  1.00  0.00    -0.250 NA
HETATM   15  C   UNL     1       3.348  -3.750   0.000  1.00  0.00     0.172 A 
HETATM   16  C   UNL     1       4.647  -3.000   0.000  1.00  0.00     0.107 A 
HETATM   17  C   UNL     1       5.946  -3.750   0.000  1.00  0.00     0.056 A 
HETATM   18  C   UNL     1       5.946  -5.250   0.000  1.00  0.00     0.072 A 
BRANCH  16  19
HETATM   19  N   UNL     1       4.647  -1.500   0.000  1.00  0.00    -0.120 N 
HETATM   20  O   UNL     1       3.348  -0.750   0.000  1.00  0.00    -0.532 OA
HETATM   21  O   UNL     1       5.946  -0.750   0.000  1.00  0.00    -0.532 OA
ENDBRANCH  16  19
ENDBRANCH   4  13
TORSDOF 3
