REMARK  2 active torsions:
REMARK  status: ('A' for Active; 'I' for Inactive)
REMARK    1  A    between atoms: C_6  and  N_21 
REMARK    2  A    between atoms: C_10  and  N_21 
ROOT
HETATM    1  S   UNL     2      -2.699   8.424   0.000  1.00  0.00     0.261 S 
HETATM    2  O   UNL     2      -2.699   9.924   0.000  1.00  0.00    -0.565 OA
HETATM    3  O   UNL     2      -4.199   8.424   0.000  1.00  0.00    -0.565 OA
HETATM    4  O   UNL     2      -2.699   6.924   0.000  1.00  0.00    -0.565 OA
HETATM    5  O   UNL     2      -1.199   8.424   0.000  1.00  0.00    -0.565 OA
ENDROOT
TORSDOF 2
