REMARK  3 active torsions:
REMARK  status: ('A' for Active; 'I' for Inactive)
REMARK    1  A    between atoms: C_7  and  C_19 
REMARK    2  A    between atoms: C_15  and  C_19 
REMARK    3  A    between atoms: C_16  and  S_17 
ROOT
HETATM    1  N   UNL     1      -4.362   0.115   0.000  1.00  0.00    -0.241 NA
HETATM    2  N   UNL     1      -2.436  -1.629   0.000  1.00  0.00    -0.201 NA
HETATM    3  N   UNL     1      -0.672   1.789   0.000  1.00  0.00    -0.336 N 
HETATM    4  H   UNL     1      -0.667   3.289   0.000  1.00  0.00     0.167 HD
HETATM    5  N   UNL     1       0.071  -0.522   0.000  1.00  0.00    -0.206 NA
HETATM    6  C   UNL     1      -3.355   1.227   0.000  1.00  0.00     0.174 A 
HETATM    7  C   UNL     1      -1.888   0.911   0.000  1.00  0.00     0.096 A 
HETATM    8  C   UNL     1      -1.429  -0.517   0.000  1.00  0.00     0.179 A 
HETATM    9  C   UNL     1       0.539   0.903   0.000  1.00  0.00     0.167 A 
HETATM   10  C   UNL     1      -3.903  -1.313   0.000  1.00  0.00     0.188 A 
ENDROOT
BRANCH   9  11
HETATM   11  C   UNL     1       1.967   1.362   0.000  1.00  0.00     0.157 C 
HETATM   12  O   UNL     1       2.283   2.829   0.000  1.00  0.00    -0.188 OA
BRANCH  11  13
HETATM   13  C   UNL     1       3.078   0.355   0.000  1.00  0.00    -0.016 A 
HETATM   14  C   UNL     1       4.506   0.814   0.000  1.00  0.00     0.024 A 
HETATM   15  C   UNL     1       5.618  -0.193   0.000  1.00  0.00     0.004 A 
HETATM   16  C   UNL     1       5.301  -1.659   0.000  1.00  0.00     0.001 A 
HETATM   17  C   UNL     1       3.873  -2.118   0.000  1.00  0.00     0.004 A 
HETATM   18  C   UNL     1       2.762  -1.111   0.000  1.00  0.00     0.024 A 
ENDBRANCH  11  13
ENDBRANCH   9  11
BRANCH  10  19
HETATM   19  S   UNL     1      -4.910  -2.424   0.000  1.00  0.00    -0.075 SA
HETATM   20  C   UNL     1      -6.376  -2.108   0.000  1.00  0.00     0.077 C 
ENDBRANCH  10  19
TORSDOF 3
