REMARK  1 active torsions:
REMARK  status: ('A' for Active; 'I' for Inactive)
REMARK    1  A    between atoms: C_1  and  C_7 
ROOT
HETATM    1  C   UNL     1       5.215   2.138   0.000  1.00  0.00     0.068 A 
HETATM    2  N   UNL     1       5.986   0.852   0.000  1.00  0.00    -0.244 NA
HETATM    3  C   UNL     1       7.486   0.877   0.000  1.00  0.00     0.082 A 
HETATM    4  C   UNL     1       8.214   2.189   0.000  1.00  0.00     0.060 A 
HETATM    5  C   UNL     1       7.442   3.475   0.000  1.00  0.00     0.082 A 
HETATM    6  N   UNL     1       5.942   3.449   0.000  1.00  0.00    -0.244 NA
HETATM    7  C   UNL     1       7.078   2.819   0.000  1.00  0.00     0.082 A 
HETATM    8  C   UNL     1       7.100   1.520   0.000  1.00  0.00     0.082 A 
ENDROOT
BRANCH   1   9
HETATM    9  C   UNL     1       3.715   2.112   0.000  1.00  0.00    -0.019 A 
HETATM   10  C   UNL     1       2.943   3.398   0.000  1.00  0.00     0.050 A 
HETATM   11  C   UNL     1       1.443   3.373   0.000  1.00  0.00     0.124 A 
HETATM   12  N   UNL     1       0.715   2.062   0.000  1.00  0.00    -0.295 NA
HETATM   13  C   UNL     1       1.487   0.775   0.000  1.00  0.00     0.124 A 
HETATM   14  C   UNL     1       2.987   0.801   0.000  1.00  0.00     0.050 A 
ENDBRANCH   1   9
TORSDOF 1
