REMARK  4 active torsions:
REMARK  status: ('A' for Active; 'I' for Inactive)
REMARK    1  A    between atoms: N_5  and  C_8 
REMARK    2  A    between atoms: N_5  and  N_6 
REMARK    3  A    between atoms: N_6  and  C_12 
REMARK    4  A    between atoms: C_13  and  S_19 
ROOT
HETATM    1  N   UNL     1      -1.401   2.342   0.000  1.00  0.00    -0.142 NA
ENDROOT
BRANCH   1   2
HETATM    2  C   UNL     1      -2.349   3.505   0.000  1.00  0.00     0.175 A 
HETATM    3  C   UNL     1      -3.830   3.266   0.000  1.00  0.00     0.237 A 
HETATM    4  N   UNL     1      -4.777   4.429   0.000  1.00  0.00    -0.188 NA
HETATM    5  O   UNL     1      -4.363   1.864   0.000  1.00  0.00    -0.167 OA
HETATM    6  C   UNL     1      -4.244   5.831   0.000  1.00  0.00     0.218 A 
HETATM    7  N   UNL     1      -2.763   6.070   0.000  1.00  0.00    -0.315 N 
HETATM    8  N   UNL     1      -5.191   6.994   0.000  1.00  0.00    -0.061 NA
HETATM    9  C   UNL     1      -1.815   4.907   0.000  1.00  0.00     0.154 A 
HETATM   10  H   UNL     1      -2.229   7.472   0.000  1.00  0.00     0.169 HD
HETATM   11  N   UNL     1      -0.335   5.146   0.000  1.00  0.00    -0.080 NA
ENDBRANCH   1   2
BRANCH   1  12
HETATM   12  N   UNL     1       0.080   2.581   0.000  1.00  0.00    -0.157 NA
BRANCH  12  13
HETATM   13  C   UNL     1       1.214   1.601   0.000  1.00  0.00     0.058 A 
HETATM   14  C   UNL     1       0.933   0.127   0.000  1.00  0.00     0.044 A 
HETATM   15  C   UNL     1       2.068  -0.854   0.000  1.00  0.00     0.024 A 
HETATM   16  C   UNL     1       3.484  -0.361   0.000  1.00  0.00     0.132 A 
HETATM   17  C   UNL     1       3.766   1.112   0.000  1.00  0.00     0.024 A 
HETATM   18  C   UNL     1       2.631   2.093   0.000  1.00  0.00     0.044 A 
BRANCH  16  19
HETATM   19  S   UNL     1       4.619  -1.342   0.000  1.00  0.00     0.281 S 
HETATM   20  O   UNL     1       5.600  -0.207   0.000  1.00  0.00    -0.201 OA
HETATM   21  O   UNL     1       3.639  -2.477   0.000  1.00  0.00    -0.201 OA
HETATM   22  N   UNL     1       5.754  -2.322   0.000  1.00  0.00    -0.047 N 
ENDBRANCH  16  19
ENDBRANCH  12  13
ENDBRANCH   1  12
TORSDOF 4
