REMARK  2 active torsions:
REMARK  status: ('A' for Active; 'I' for Inactive)
REMARK    1  A    between atoms: C_5  and  S_10 
REMARK    2  A    between atoms: S_10  and  C_11 
ROOT
HETATM    1  N   UNL     1      -5.946  -2.250   0.000  1.00  0.00    -0.316 N 
HETATM    2  H   UNL     1      -5.946  -0.750   0.000  1.00  0.00     0.170 HD
HETATM    3  O   UNL     1      -5.946  -6.750   0.000  1.00  0.00    -0.173 OA
HETATM    4  N   UNL     1      -4.647  -4.500   0.000  1.00  0.00    -0.200 NA
HETATM    5  C   UNL     1      -4.647  -3.000   0.000  1.00  0.00     0.171 A 
HETATM    6  C   UNL     1      -7.245  -3.000   0.000  1.00  0.00     0.178 A 
HETATM    7  C   UNL     1      -7.245  -4.500   0.000  1.00  0.00     0.147 A 
HETATM    8  C   UNL     1      -5.946  -5.250   0.000  1.00  0.00     0.199 A 
HETATM    9  O   UNL     1      -8.544  -2.250   0.000  1.00  0.00    -0.175 OA
ENDROOT
BRANCH   5  10
HETATM   10  S   UNL     1      -3.348  -2.250   0.000  1.00  0.00    -0.077 SA
BRANCH  10  11
HETATM   11  C   UNL     1      -2.049  -3.000   0.000  1.00  0.00     0.065 C 
HETATM   12  C   UNL     1      -0.750  -2.250   0.000  1.00  0.00     0.013 C 
ENDBRANCH  10  11
ENDBRANCH   5  10
TORSDOF 2
