REMARK  2 active torsions:
REMARK  status: ('A' for Active; 'I' for Inactive)
REMARK    1  A    between atoms: C_3  and  C_8 
REMARK    2  A    between atoms: C_8  and  O_10 
ROOT
HETATM    1  N   UNL     1       0.924   1.399   0.000  1.00  0.00    -0.291 NA
HETATM    2  C   UNL     1       0.924   4.399   0.000  1.00  0.00     0.030 A 
HETATM    3  C   UNL     1       2.223   3.650   0.000  1.00  0.00     0.028 A 
HETATM    4  C   UNL     1      -0.375   3.650   0.000  1.00  0.00     0.028 A 
HETATM    5  C   UNL     1       2.223   2.150   0.000  1.00  0.00     0.146 A 
HETATM    6  C   UNL     1      -0.375   2.150   0.000  1.00  0.00     0.120 A 
HETATM    7  C   UNL     1      -1.674   4.399   0.000  1.00  0.00     0.002 C 
ENDROOT
BRANCH   3   8
HETATM    8  C   UNL     1       3.522   4.399   0.000  1.00  0.00     0.222 C 
HETATM    9  O   UNL     1       4.821   3.650   0.000  1.00  0.00    -0.164 OA
BRANCH   8  10
HETATM   10  O   UNL     1       3.522   5.899   0.000  1.00  0.00    -0.307 OA
HETATM   11  C   UNL     1       2.223   6.649   0.000  1.00  0.00     0.184 C 
ENDBRANCH   8  10
ENDBRANCH   3   8
TORSDOF 2
