REMARK  2 active torsions:
REMARK  status: ('A' for Active; 'I' for Inactive)
REMARK    1  A    between atoms: C_5  and  C_15 
REMARK    2  A    between atoms: C_9  and  C_15 
ROOT
HETATM    1  H   UNL     1      -0.433   2.250   0.000  1.00  0.00     0.155 HD
HETATM    2  N   UNL     1       0.866   3.000   0.000  1.00  0.00    -0.393 N 
HETATM    3  C   UNL     1       3.464   4.500   0.000  1.00  0.00     0.131 A 
HETATM    4  C   UNL     1       2.165   5.250   0.000  1.00  0.00     0.054 A 
HETATM    5  C   UNL     1       0.866   4.500   0.000  1.00  0.00     0.096 A 
HETATM    6  C   UNL     1       3.464   3.000   0.000  1.00  0.00     0.054 A 
HETATM    7  C   UNL     1       2.165   2.250   0.000  1.00  0.00     0.096 A 
HETATM    8  O   UNL     1       3.977   5.910   0.000  1.00  0.00    -0.226 OA
ENDROOT
BRANCH   3   9
HETATM    9  C   UNL     1       4.941   4.240   0.000  1.00  0.00     0.031 C 
BRANCH   9  10
HETATM   10  C   UNL     1       5.905   5.389   0.000  1.00  0.00     0.002 A 
HETATM   11  C   UNL     1       5.392   6.798   0.000  1.00  0.00     0.000 A 
HETATM   12  C   UNL     1       6.356   7.947   0.000  1.00  0.00     0.000 A 
HETATM   13  C   UNL     1       7.834   7.687   0.000  1.00  0.00     0.000 A 
HETATM   14  C   UNL     1       8.347   6.277   0.000  1.00  0.00     0.000 A 
HETATM   15  C   UNL     1       7.383   5.128   0.000  1.00  0.00     0.000 A 
ENDBRANCH   9  10
ENDBRANCH   3   9
TORSDOF 2
