REMARK  2 active torsions:
REMARK  status: ('A' for Active; 'I' for Inactive)
REMARK    1  A    between atoms: C_6  and  C_8 
REMARK    2  A    between atoms: C_10  and  O_12 
ROOT
HETATM    1  C   UNL     1      -1.187   7.551   0.000  1.00  0.00     0.026 A 
HETATM    2  C   UNL     1      -2.486   6.801   0.000  1.00  0.00     0.007 A 
HETATM    3  C   UNL     1       0.112   6.801   0.000  1.00  0.00     0.000 A 
HETATM    4  C   UNL     1       0.112   5.301   0.000  1.00  0.00     0.055 A 
HETATM    5  C   UNL     1      -2.486   5.301   0.000  1.00  0.00     0.030 A 
HETATM    6  C   UNL     1      -1.187   4.551   0.000  1.00  0.00     0.120 A 
ENDROOT
BRANCH   3   7
HETATM    7  C   UNL     1       1.411   7.551   0.000  1.00  0.00     0.187 A 
HETATM    8  N   UNL     1       2.781   6.941   0.000  1.00  0.00    -0.151 NA
HETATM    9  N   UNL     1       3.785   8.056   0.000  1.00  0.00    -0.032 NA
HETATM   10  C   UNL     1       3.035   9.355   0.000  1.00  0.00     0.530 A 
HETATM   11  O   UNL     1       1.568   9.043   0.000  1.00  0.00    -0.267 OA
HETATM   12  N   UNL     1       3.645  10.725   0.000  1.00  0.00     0.673 N 
ENDBRANCH   3   7
BRANCH   6  13
HETATM   13  O   UNL     1      -1.187   3.051   0.000  1.00  0.00    -0.354 OA
HETATM   14  C   UNL     1      -2.486   2.301   0.000  1.00  0.00     0.174 C 
ENDBRANCH   6  13
TORSDOF 2
