REMARK  1 active torsions:
REMARK  status: ('A' for Active; 'I' for Inactive)
REMARK    1  A    between atoms: C_10  and  C_11 
ROOT
HETATM    1  H   UNL     1      -3.522   5.899   0.000  1.00  0.00     0.160 HD
HETATM    2  N   UNL     1      -2.223   6.649   0.000  1.00  0.00    -0.372 N 
HETATM    3  N   UNL     1       1.802   8.613   0.000  1.00  0.00    -0.355 N 
HETATM    4  H   UNL     1       2.265  10.040   0.000  1.00  0.00     0.162 HD
HETATM    5  N   UNL     1       1.802   6.186   0.000  1.00  0.00    -0.244 NA
HETATM    6  C   UNL     1      -0.924   8.899   0.000  1.00  0.00     0.069 A 
HETATM    7  C   UNL     1      -2.223   8.149   0.000  1.00  0.00     0.104 A 
HETATM    8  C   UNL     1       0.375   8.149   0.000  1.00  0.00     0.052 A 
HETATM    9  C   UNL     1       0.375   6.649   0.000  1.00  0.00     0.104 A 
HETATM   10  C   UNL     1      -0.924   5.899   0.000  1.00  0.00     0.064 A 
HETATM   11  C   UNL     1       2.683   7.399   0.000  1.00  0.00     0.227 A 
ENDROOT
BRANCH  10  12
HETATM   12  C   UNL     1      -0.924   4.399   0.000  1.00  0.00    -0.027 A 
HETATM   13  C   UNL     1       0.375   3.650   0.000  1.00  0.00     0.024 A 
HETATM   14  C   UNL     1       0.375   2.150   0.000  1.00  0.00     0.004 A 
HETATM   15  C   UNL     1      -0.924   1.399   0.000  1.00  0.00     0.001 A 
HETATM   16  C   UNL     1      -2.223   2.150   0.000  1.00  0.00     0.004 A 
HETATM   17  C   UNL     1      -2.223   3.650   0.000  1.00  0.00     0.024 A 
ENDBRANCH  10  12
TORSDOF 1
