REMARK  4 active torsions:
REMARK  status: ('A' for Active; 'I' for Inactive)
REMARK    1  A    between atoms: N_1  and  C_21 
REMARK    2  A    between atoms: N_2  and  C_4 
REMARK    3  A    between atoms: C_15  and  C_21 
REMARK    4  A    between atoms: C_17  and  O_19 
ROOT
HETATM    1  N   UNL     1       8.544   5.250   0.000  1.00  0.00    -0.337 N 
HETATM    2  N   UNL     1      11.142   3.750   0.000  1.00  0.00    -0.348 N 
HETATM    3  C   UNL     1      11.142   5.250   0.000  1.00  0.00     0.126 A 
HETATM    4  C   UNL     1       9.843   6.000   0.000  1.00  0.00     0.126 A 
HETATM    5  C   UNL     1       9.843   3.000   0.000  1.00  0.00     0.126 A 
HETATM    6  C   UNL     1       8.544   3.750   0.000  1.00  0.00     0.126 A 
ENDROOT
BRANCH   1   7
HETATM    7  C   UNL     1       7.245   6.000   0.000  1.00  0.00     0.104 C 
HETATM    8  S   UNL     1       7.245   7.500   0.000  1.00  0.00    -0.060 SA
BRANCH   7   9
HETATM    9  C   UNL     1       5.946   5.250   0.000  1.00  0.00    -0.018 A 
HETATM   10  C   UNL     1       4.647   6.000   0.000  1.00  0.00     0.027 A 
HETATM   11  C   UNL     1       3.348   5.250   0.000  1.00  0.00     0.034 A 
HETATM   12  C   UNL     1       3.348   3.750   0.000  1.00  0.00     0.116 A 
HETATM   13  C   UNL     1       4.647   3.000   0.000  1.00  0.00     0.034 A 
HETATM   14  C   UNL     1       5.946   3.750   0.000  1.00  0.00     0.027 A 
BRANCH  12  15
HETATM   15  O   UNL     1       2.049   3.000   0.000  1.00  0.00    -0.354 OA
HETATM   16  C   UNL     1       0.750   3.750   0.000  1.00  0.00     0.174 C 
ENDBRANCH  12  15
ENDBRANCH   7   9
ENDBRANCH   1   7
BRANCH   2  17
HETATM   17  C   UNL     1      12.441   3.000   0.000  1.00  0.00     0.025 A 
HETATM   18  C   UNL     1      13.740   3.750   0.000  1.00  0.00     0.043 A 
HETATM   19  C   UNL     1      15.039   3.000   0.000  1.00  0.00     0.006 A 
HETATM   20  C   UNL     1      15.039   1.500   0.000  1.00  0.00     0.005 A 
HETATM   21  C   UNL     1      13.740   0.750   0.000  1.00  0.00     0.023 A 
HETATM   22  C   UNL     1      12.441   1.500   0.000  1.00  0.00    -0.033 A 
HETATM   23  C   UNL     1      11.142   0.750   0.000  1.00  0.00     0.028 C 
ENDBRANCH   2  17
TORSDOF 4
