REMARK  1 active torsions:
REMARK  status: ('A' for Active; 'I' for Inactive)
REMARK    1  A    between atoms: C_9  and  C_11 
ROOT
HETATM    1  H   UNL     1       0.750  -5.250   0.000  1.00  0.00     0.167 HD
HETATM    2  N   UNL     1       2.049  -6.000   0.000  1.00  0.00    -0.344 N 
HETATM    3  N   UNL     1       4.647  -6.000   0.000  1.00  0.00    -0.344 N 
HETATM    4  H   UNL     1       5.946  -5.250   0.000  1.00  0.00     0.167 HD
HETATM    5  C   UNL     1       3.348  -5.250   0.000  1.00  0.00     0.111 A 
HETATM    6  C   UNL     1       4.647  -7.500   0.000  1.00  0.00     0.035 A 
HETATM    7  C   UNL     1       3.348  -8.250   0.000  1.00  0.00     0.015 A 
HETATM    8  C   UNL     1       5.946  -8.250   0.000  1.00  0.00     0.044 A 
HETATM    9  C   UNL     1       2.049  -7.500   0.000  1.00  0.00     0.035 A 
HETATM   10  C   UNL     1       0.750  -8.250   0.000  1.00  0.00     0.044 A 
HETATM   11  C   UNL     1       5.946  -9.750   0.000  1.00  0.00     0.011 A 
HETATM   12  C   UNL     1       3.348  -9.750   0.000  1.00  0.00    -0.042 A 
HETATM   13  C   UNL     1       0.750  -9.750   0.000  1.00  0.00     0.011 A 
HETATM   14  C   UNL     1       4.647 -10.500   0.000  1.00  0.00     0.022 A 
HETATM   15  C   UNL     1       2.049 -10.500   0.000  1.00  0.00     0.022 A 
ENDROOT
BRANCH   5  16
HETATM   16  C   UNL     1       3.348  -3.750   0.000  1.00  0.00     0.012 A 
HETATM   17  C   UNL     1       2.049  -3.000   0.000  1.00  0.00     0.029 A 
HETATM   18  C   UNL     1       2.049  -1.500   0.000  1.00  0.00     0.030 A 
HETATM   19  C   UNL     1       3.348  -0.750   0.000  1.00  0.00     0.121 A 
HETATM   20  N   UNL     1       4.647  -1.500   0.000  1.00  0.00    -0.291 NA
HETATM   21  C   UNL     1       4.647  -3.000   0.000  1.00  0.00     0.145 A 
ENDBRANCH   5  16
TORSDOF 1
