REMARK  4 active torsions:
REMARK  status: ('A' for Active; 'I' for Inactive)
REMARK    1  A    between atoms: N_5  and  C_17 
REMARK    2  A    between atoms: C_13  and  C_17 
REMARK    3  A    between atoms: C_14  and  C_18 
REMARK    4  A    between atoms: C_18  and  O_20 
ROOT
HETATM    1  C   UNL     1       6.162  -1.991   0.000  1.00  0.00     0.105 C 
ENDROOT
BRANCH   1   2
HETATM    2  N   UNL     1       5.699  -0.564   0.000  1.00  0.00    -0.312 N 
HETATM    3  C   UNL     1       4.272  -0.101   0.000  1.00  0.00     0.159 A 
HETATM    4  N   UNL     1       2.973  -0.851   0.000  1.00  0.00    -0.226 NA
HETATM    5  C   UNL     1       4.272   1.399   0.000  1.00  0.00     0.140 A 
HETATM    6  C   UNL     1       1.674  -0.101   0.000  1.00  0.00     0.253 A 
HETATM    7  N   UNL     1       1.674   1.399   0.000  1.00  0.00    -0.231 NA
HETATM    8  C   UNL     1       2.973   2.150   0.000  1.00  0.00     0.155 A 
HETATM    9 CL   UNL     1       2.973   3.650   0.000  1.00  0.00    -0.060 Cl
HETATM   10  N   UNL     1       5.699   1.863   0.000  1.00  0.00    -0.240 NA
HETATM   11  C   UNL     1       6.580   0.649   0.000  1.00  0.00     0.232 A 
ENDBRANCH   1   2
BRANCH   1  12
HETATM   12  C   UNL     1       7.630  -2.303   0.000  1.00  0.00     0.023 A 
HETATM   13  C   UNL     1       8.633  -1.188   0.000  1.00  0.00     0.006 A 
HETATM   14  C   UNL     1      10.100  -1.500   0.000  1.00  0.00     0.026 A 
HETATM   15  C   UNL     1      10.564  -2.926   0.000  1.00  0.00     0.005 A 
HETATM   16  C   UNL     1       9.560  -4.041   0.000  1.00  0.00     0.026 A 
HETATM   17  C   UNL     1       8.093  -3.729   0.000  1.00  0.00     0.006 A 
BRANCH  15  18
HETATM   18  C   UNL     1      12.031  -3.238   0.000  1.00  0.00     0.220 C 
HETATM   19  O   UNL     1      13.035  -2.123   0.000  1.00  0.00    -0.164 OA
BRANCH  18  20
HETATM   20  O   UNL     1      12.495  -4.665   0.000  1.00  0.00    -0.307 OA
HETATM   21  C   UNL     1      13.962  -4.976   0.000  1.00  0.00     0.184 C 
ENDBRANCH  18  20
ENDBRANCH  15  18
ENDBRANCH   1  12
TORSDOF 4
