REMARK  3 active torsions:
REMARK  status: ('A' for Active; 'I' for Inactive)
REMARK    1  A    between atoms: C_10  and  C_12 
REMARK    2  A    between atoms: C_23  and  C_25 
REMARK    3  A    between atoms: C_31  and  C_32 
ROOT
HETATM    1  H   UNL     1      -9.135  -4.890   0.000  1.00  0.00     0.168 HD
HETATM    2  N   UNL     1      -8.672  -3.463   0.000  1.00  0.00    -0.333 N 
HETATM    3  O   UNL     1      -8.672  -1.036   0.000  1.00  0.00    -0.291 OA
HETATM    4  C   UNL     1      -5.946  -0.750   0.000  1.00  0.00     0.057 A 
HETATM    5  C   UNL     1      -4.647  -1.500   0.000  1.00  0.00     0.029 A 
HETATM    6  C   UNL     1      -7.245  -1.500   0.000  1.00  0.00     0.091 A 
HETATM    7  C   UNL     1      -4.647  -3.000   0.000  1.00  0.00    -0.046 A 
HETATM    8  C   UNL     1      -7.245  -3.000   0.000  1.00  0.00     0.058 A 
HETATM    9  C   UNL     1      -5.946  -3.750   0.000  1.00  0.00     0.067 A 
HETATM   10  C   UNL     1      -9.553  -2.250   0.000  1.00  0.00     0.200 A 
ENDROOT
BRANCH  10  11
HETATM   11  C   UNL     1     -11.053  -2.250   0.000  1.00  0.00     0.200 A 
HETATM   12  O   UNL     1     -11.935  -1.036   0.000  1.00  0.00    -0.291 OA
HETATM   13  C   UNL     1     -13.362  -1.500   0.000  1.00  0.00     0.091 A 
HETATM   14  C   UNL     1     -14.661  -0.750   0.000  1.00  0.00     0.057 A 
HETATM   15  C   UNL     1     -13.362  -3.000   0.000  1.00  0.00     0.058 A 
HETATM   16  C   UNL     1     -15.960  -1.500   0.000  1.00  0.00     0.029 A 
HETATM   17  C   UNL     1     -15.960  -3.000   0.000  1.00  0.00    -0.046 A 
HETATM   18  C   UNL     1     -14.661  -3.750   0.000  1.00  0.00     0.067 A 
HETATM   19  N   UNL     1     -11.935  -3.464   0.000  1.00  0.00    -0.333 N 
HETATM   20  H   UNL     1     -11.472  -4.890   0.000  1.00  0.00     0.168 HD
BRANCH  17  21
HETATM   21  C   UNL     1     -17.259  -3.750   0.000  1.00  0.00    -0.052 A 
HETATM   22  C   UNL     1     -17.259  -5.250   0.000  1.00  0.00     0.021 A 
HETATM   23  C   UNL     1     -18.558  -6.000   0.000  1.00  0.00     0.004 A 
HETATM   24  C   UNL     1     -19.857  -5.250   0.000  1.00  0.00     0.001 A 
HETATM   25  C   UNL     1     -19.857  -3.750   0.000  1.00  0.00     0.004 A 
HETATM   26  C   UNL     1     -18.558  -3.000   0.000  1.00  0.00     0.021 A 
ENDBRANCH  17  21
ENDBRANCH  10  11
BRANCH   7  27
HETATM   27  C   UNL     1      -3.348  -3.750   0.000  1.00  0.00    -0.052 A 
HETATM   28  C   UNL     1      -3.348  -5.250   0.000  1.00  0.00     0.021 A 
HETATM   29  C   UNL     1      -2.049  -6.000   0.000  1.00  0.00     0.004 A 
HETATM   30  C   UNL     1      -0.750  -5.250   0.000  1.00  0.00     0.001 A 
HETATM   31  C   UNL     1      -0.750  -3.750   0.000  1.00  0.00     0.004 A 
HETATM   32  C   UNL     1      -2.049  -3.000   0.000  1.00  0.00     0.021 A 
ENDBRANCH   7  27
TORSDOF 3
