REMARK  4 active torsions:
REMARK  status: ('A' for Active; 'I' for Inactive)
REMARK    1  A    between atoms: N_5  and  C_9 
REMARK    2  A    between atoms: N_5  and  N_6 
REMARK    3  A    between atoms: N_6  and  C_12 
REMARK    4  A    between atoms: C_17  and  S_18 
ROOT
HETATM    1  N   UNL     1      -1.450   2.678   0.000  1.00  0.00    -0.142 NA
ENDROOT
BRANCH   1   2
HETATM    2  C   UNL     1      -2.399   3.839   0.000  1.00  0.00     0.175 A 
HETATM    3  C   UNL     1      -3.880   3.598   0.000  1.00  0.00     0.236 A 
HETATM    4  N   UNL     1      -4.829   4.760   0.000  1.00  0.00    -0.195 NA
HETATM    5  O   UNL     1      -4.411   2.196   0.000  1.00  0.00    -0.167 OA
HETATM    6  C   UNL     1      -4.297   6.162   0.000  1.00  0.00     0.171 A 
HETATM    7  N   UNL     1      -2.817   6.404   0.000  1.00  0.00    -0.322 N 
HETATM    8  C   UNL     1      -1.868   5.242   0.000  1.00  0.00     0.153 A 
HETATM    9  H   UNL     1      -2.286   7.806   0.000  1.00  0.00     0.169 HD
HETATM   10  N   UNL     1      -0.387   5.483   0.000  1.00  0.00    -0.080 NA
BRANCH   6  11
HETATM   11  S   UNL     1      -5.247   7.324   0.000  1.00  0.00    -0.076 SA
HETATM   12  C   UNL     1      -6.727   7.083   0.000  1.00  0.00     0.077 C 
ENDBRANCH   6  11
ENDBRANCH   1   2
BRANCH   1  13
HETATM   13  N   UNL     1       0.030   2.919   0.000  1.00  0.00    -0.157 NA
BRANCH  13  14
HETATM   14  C   UNL     1       1.565   1.597   0.000  1.00  0.00     0.058 A 
HETATM   15  C   UNL     1       1.285   0.124   0.000  1.00  0.00     0.043 A 
HETATM   16  C   UNL     1       2.421  -0.855   0.000  1.00  0.00     0.006 A 
HETATM   17  C   UNL     1       3.837  -0.361   0.000  1.00  0.00     0.001 A 
HETATM   18  C   UNL     1       4.117   1.113   0.000  1.00  0.00     0.006 A 
HETATM   19 AS   UNL     1       5.372  -1.683   0.000  1.00  0.00     0.000 As
HETATM   20  O   UNL     1       4.877  -0.267   0.000  1.00  0.00     0.000 OA
HETATM   21  C   UNL     1       2.981   2.092   0.000  1.00  0.00     0.043 A 
HETATM   22  O   UNL     1       6.867  -1.571   0.000  1.00  0.00     0.000 OA
HETATM   23  O   UNL     1       4.720  -3.034   0.000  1.00  0.00     0.000 OA
ENDBRANCH  13  14
ENDBRANCH   1  13
TORSDOF 4
