REMARK  0 active torsions:
REMARK  status: ('A' for Active; 'I' for Inactive)
ROOT
HETATM    1  C   UNL     1       2.049   3.750   0.000  1.00  0.00     0.006 A 
HETATM    2  C   UNL     1       2.915   2.250   0.000  1.00  0.00     0.029 A 
HETATM    3  C   UNL     1       0.750   3.000   0.000  1.00  0.00     0.000 A 
HETATM    4  C   UNL     1       3.348   3.000   0.000  1.00  0.00     0.045 A 
HETATM    5  C   UNL     1       3.348   1.500   0.000  1.00  0.00     0.097 A 
HETATM    6  C   UNL     1       0.750   1.500   0.000  1.00  0.00     0.002 A 
HETATM    7  C   UNL     1       2.049   0.750   0.000  1.00  0.00     0.028 A 
HETATM    8  C   UNL     1       4.647   3.750   0.000  1.00  0.00     0.101 A 
HETATM    9  N   UNL     1       5.946   3.000   0.000  1.00  0.00    -0.342 N 
HETATM   10  C   UNL     1       7.245   3.750   0.000  1.00  0.00     0.123 C 
HETATM   11  C   UNL     1       5.946   1.500   0.000  1.00  0.00     0.247 A 
HETATM   12  O   UNL     1       4.647   0.750   0.000  1.00  0.00    -0.338 OA
ENDROOT
TORSDOF 0
