REMARK  2 active torsions:
REMARK  status: ('A' for Active; 'I' for Inactive)
REMARK    1  A    between atoms: N_11  and  C_12 
REMARK    2  A    between atoms: C_12  and  C_13 
ROOT
HETATM    1 CL   UNL     1      -4.172  -9.274   0.000  1.00  0.00    -0.091 Cl
HETATM    2  C   UNL     1      -4.172  -4.774   0.000  1.00  0.00     0.089 A 
HETATM    3  C   UNL     1      -5.471  -5.524   0.000  1.00  0.00     0.059 A 
HETATM    4  C   UNL     1      -2.873  -5.524   0.000  1.00  0.00     0.058 A 
HETATM    5  C   UNL     1      -2.873  -7.024   0.000  1.00  0.00     0.079 A 
HETATM    6  C   UNL     1      -5.471  -7.024   0.000  1.00  0.00     0.041 A 
HETATM    7  C   UNL     1      -4.172  -7.774   0.000  1.00  0.00     0.020 A 
HETATM    8  C   UNL     1      -1.574  -3.275   0.000  1.00  0.00     0.136 A 
HETATM    9  C   UNL     1      -2.873  -2.525   0.000  1.00  0.00     0.180 A 
HETATM   10  F   UNL     1      -4.172  -3.275   0.000  1.00  0.00    -0.351 F 
HETATM   11  N   UNL     1      -1.573  -4.774   0.000  1.00  0.00    -0.345 N 
ENDROOT
BRANCH  11  12
HETATM   12  C   UNL     1      -0.275  -5.524   0.000  1.00  0.00     0.140 C 
BRANCH  12  13
HETATM   13  C   UNL     1       1.024  -4.774   0.000  1.00  0.00     0.217 C 
HETATM   14  F   UNL     1       2.324  -5.524   0.000  1.00  0.00    -0.232 F 
ENDBRANCH  12  13
ENDBRANCH  11  12
TORSDOF 2
