REMARK  2 active torsions:
REMARK  status: ('A' for Active; 'I' for Inactive)
REMARK    1  A    between atoms: C_9  and  C_10 
REMARK    2  A    between atoms: C_10  and  C_11 
ROOT
HETATM    1  N   UNL     1       2.049   3.000   0.000  1.00  0.00    -0.234 NA
HETATM    2  N   UNL     1       3.348   5.250   0.000  1.00  0.00    -0.194 NA
HETATM    3  C   UNL     1       4.647   4.500   0.000  1.00  0.00     0.185 A 
HETATM    4  C   UNL     1       4.647   3.000   0.000  1.00  0.00     0.153 A 
HETATM    5  C   UNL     1       3.348   2.250   0.000  1.00  0.00     0.180 A 
HETATM    6  C   UNL     1       2.049   4.500   0.000  1.00  0.00     0.235 A 
HETATM    7  N   UNL     1       0.750   5.250   0.000  1.00  0.00    -0.060 NA
HETATM    8  N   UNL     1       5.946   5.250   0.000  1.00  0.00    -0.204 NA
HETATM    9  C   UNL     1       7.245   4.500   0.000  1.00  0.00     0.185 A 
HETATM   10  N   UNL     1       5.946   2.250   0.000  1.00  0.00    -0.082 N 
HETATM   11  O   UNL     1       7.245   3.000   0.000  1.00  0.00    -0.191 OA
HETATM   12  O   UNL     1       5.946   0.750   0.000  1.00  0.00    -0.057 OA
ENDROOT
BRANCH   9  13
HETATM   13  C   UNL     1       8.544   5.250   0.000  1.00  0.00     0.074 C 
BRANCH  13  14
HETATM   14  C   UNL     1       9.843   4.500   0.000  1.00  0.00     0.009 C 
HETATM   15  C   UNL     1      11.142   5.250   0.000  1.00  0.00     0.001 C 
ENDBRANCH  13  14
ENDBRANCH   9  13
TORSDOF 2
