REMARK  1 active torsions:
REMARK  status: ('A' for Active; 'I' for Inactive)
REMARK    1  A    between atoms: N_1  and  P_8 
ROOT
HETATM    1  O   UNL     1       3.549   0.750   0.000  1.00  0.00    -0.249 OA
HETATM    2  N   UNL     1       3.549   3.750   0.000  1.00  0.00    -0.295 N 
HETATM    3  C   UNL     1       2.250   4.500   0.000  1.00  0.00     0.130 C 
HETATM    4  C   UNL     1       4.848   4.500   0.000  1.00  0.00     0.130 A 
HETATM    5  P   UNL     1       3.549   2.250   0.000  1.00  0.00     0.354 P 
HETATM    6  N   UNL     1       5.049   2.250   0.000  1.00  0.00    -0.295 N 
HETATM    7  C   UNL     1       5.799   0.951   0.000  1.00  0.00     0.130 C 
HETATM    8  C   UNL     1       5.799   3.549   0.000  1.00  0.00     0.130 A 
ENDROOT
BRANCH   5   9
HETATM    9  N   UNL     1       2.049   2.250   0.000  1.00  0.00    -0.295 N 
HETATM   10  C   UNL     1       0.750   3.000   0.000  1.00  0.00     0.130 A 
HETATM   11  C   UNL     1       0.750   1.500   0.000  1.00  0.00     0.130 A 
ENDBRANCH   5   9
TORSDOF 1
