REMARK  3 active torsions:
REMARK  status: ('A' for Active; 'I' for Inactive)
REMARK    1  A    between atoms: C_8  and  C_20 
REMARK    2  A    between atoms: C_15  and  C_20 
REMARK    3  A    between atoms: C_16  and  C_18 
ROOT
HETATM    1  O   UNL     1       0.608 -10.691   0.000  1.00  0.00    -0.316 OA
HETATM    2  C   UNL     1       3.111 -11.806   0.000  1.00  0.00     0.051 A 
HETATM    3  C   UNL     1       4.579 -11.494   0.000  1.00  0.00     0.007 A 
HETATM    4  C   UNL     1       2.108 -10.691   0.000  1.00  0.00     0.073 A 
HETATM    5  C   UNL     1       2.571  -9.264   0.000  1.00  0.00     0.000 A 
HETATM    6  C   UNL     1       5.042 -10.067   0.000  1.00  0.00     0.005 A 
HETATM    7  C   UNL     1       1.358  -8.383   0.000  1.00  0.00     0.041 A 
HETATM    8  C   UNL     1       0.144  -9.264   0.000  1.00  0.00     0.079 A 
HETATM    9  C   UNL     1       4.038  -8.953   0.000  1.00  0.00     0.028 A 
ENDROOT
BRANCH   7  10
HETATM   10  C   UNL     1       1.358  -6.883   0.000  1.00  0.00     0.125 C 
HETATM   11  O   UNL     1       0.059  -6.133   0.000  1.00  0.00    -0.191 OA
BRANCH  10  12
HETATM   12  C   UNL     1       2.657  -6.133   0.000  1.00  0.00    -0.009 A 
HETATM   13  C   UNL     1       2.657  -4.633   0.000  1.00  0.00     0.060 A 
HETATM   14  C   UNL     1       3.956  -3.883   0.000  1.00  0.00     0.042 A 
HETATM   15 BR   UNL     1       3.956  -2.383   0.000  1.00  0.00    -0.051 Br
HETATM   16  C   UNL     1       5.255  -4.633   0.000  1.00  0.00     0.136 A 
HETATM   17  C   UNL     1       5.255  -6.133   0.000  1.00  0.00     0.042 A 
HETATM   18  O   UNL     1       6.554  -3.883   0.000  1.00  0.00    -0.190 OA
HETATM   19 BR   UNL     1       6.554  -6.883   0.000  1.00  0.00    -0.051 Br
HETATM   20  C   UNL     1       3.956  -6.883   0.000  1.00  0.00     0.060 A 
ENDBRANCH  10  12
ENDBRANCH   7  10
BRANCH   8  21
HETATM   21  C   UNL     1      -1.282  -8.801   0.000  1.00  0.00     0.052 C 
HETATM   22  C   UNL     1      -1.594  -7.334   0.000  1.00  0.00     0.007 C 
ENDBRANCH   8  21
TORSDOF 3
