REMARK  0 active torsions:
REMARK  status: ('A' for Active; 'I' for Inactive)
ROOT
HETATM    1  O   UNL     1      -0.770 -13.156   0.000  1.00  0.00    -0.328 OA
HETATM    2  O   UNL     1       3.308  -2.294   0.000  1.00  0.00    -0.226 OA
HETATM    3  C   UNL     1       3.772  -3.720   0.000  1.00  0.00     0.126 A 
HETATM    4  C   UNL     1       5.198  -4.184   0.000  1.00  0.00     0.030 A 
HETATM    5  C   UNL     1       2.890  -4.934   0.000  1.00  0.00     0.023 A 
HETATM    6  C   UNL     1       1.398  -5.091   0.000  1.00  0.00     0.004 A 
HETATM    7  C   UNL     1       0.788  -6.461   0.000  1.00  0.00    -0.002 A 
HETATM    8  C   UNL     1       5.198  -5.684   0.000  1.00  0.00    -0.004 A 
HETATM    9  C   UNL     1       3.772  -6.148   0.000  1.00  0.00     0.016 A 
HETATM   10  C   UNL     1       1.670  -7.675   0.000  1.00  0.00     0.032 A 
HETATM   11  C   UNL     1       3.162  -7.518   0.000  1.00  0.00     0.012 A 
HETATM   12  C   UNL     1       1.060  -9.045   0.000  1.00  0.00    -0.052 A 
HETATM   13  C   UNL     1      -0.432  -9.202   0.000  1.00  0.00     0.074 A 
HETATM   14  C   UNL     1      -1.042 -10.572   0.000  1.00  0.00     0.097 A 
HETATM   15  C   UNL     1       4.043  -8.731   0.000  1.00  0.00    -0.002 A 
HETATM   16  C   UNL     1       1.942 -10.258   0.000  1.00  0.00    -0.046 A 
HETATM   17  C   UNL     1      -0.160 -11.786   0.000  1.00  0.00     0.094 A 
HETATM   18  C   UNL     1       3.433 -10.102   0.000  1.00  0.00     0.021 A 
HETATM   19  C   UNL     1       1.331 -11.629   0.000  1.00  0.00     0.074 A 
HETATM   20  C   UNL     1      -3.144 -12.099   0.000  1.00  0.00     0.304 A 
HETATM   21  O   UNL     1      -2.534 -10.729   0.000  1.00  0.00    -0.304 OA
HETATM   22  O   UNL     1      -4.636 -12.256   0.000  1.00  0.00    -0.187 OA
HETATM   23  C   UNL     1      -2.262 -13.313   0.000  1.00  0.00     0.213 A 
HETATM   24  C   UNL     1       2.140  -3.635   0.000  1.00  0.00     0.030 A 
ENDROOT
TORSDOF 0
