REMARK  5 active torsions:
REMARK  status: ('A' for Active; 'I' for Inactive)
REMARK    1  A    between atoms: C_5  and  N_17 
REMARK    2  A    between atoms: C_7  and  N_8 
REMARK    3  A    between atoms: C_7  and  N_17 
REMARK    4  A    between atoms: N_11  and  C_14 
REMARK    5  A    between atoms: C_14  and  C_15 
ROOT
HETATM    1  N   UNL     1      -4.821  -6.649   0.000  1.00  0.00    -0.321 N 
HETATM    2  C   UNL     1      -3.522  -7.399   0.000  1.00  0.00     0.127 A 
HETATM    3  C   UNL     1      -2.223  -6.649   0.000  1.00  0.00     0.122 A 
HETATM    4  N   UNL     1      -2.223  -5.149   0.000  1.00  0.00    -0.366 N 
HETATM    5  C   UNL     1      -3.522  -4.399   0.000  1.00  0.00     0.122 A 
HETATM    6  C   UNL     1      -4.821  -5.149   0.000  1.00  0.00     0.127 A 
ENDROOT
BRANCH   1   7
HETATM    7  C   UNL     1      -6.120  -7.399   0.000  1.00  0.00     0.198 C 
HETATM    8  S   UNL     1      -6.120  -8.899   0.000  1.00  0.00    -0.039 SA
BRANCH   7   9
HETATM    9  N   UNL     1      -7.419  -6.649   0.000  1.00  0.00    -0.228 NA
BRANCH   9  10
HETATM   10  C   UNL     1      -8.718  -7.399   0.000  1.00  0.00     0.039 A 
HETATM   11  C   UNL     1      -8.718  -8.899   0.000  1.00  0.00     0.041 A 
HETATM   12  C   UNL     1     -10.017  -9.649   0.000  1.00  0.00     0.006 A 
HETATM   13  C   UNL     1     -11.316  -8.899   0.000  1.00  0.00     0.001 A 
HETATM   14  C   UNL     1     -11.316  -7.399   0.000  1.00  0.00     0.006 A 
HETATM   15  C   UNL     1     -10.017  -6.649   0.000  1.00  0.00     0.041 A 
ENDBRANCH   9  10
ENDBRANCH   7   9
ENDBRANCH   1   7
BRANCH   4  16
HETATM   16  C   UNL     1      -0.924  -4.399   0.000  1.00  0.00     0.091 A 
HETATM   17  C   UNL     1      -0.174  -3.100   0.000  1.00  0.00     0.025 A 
HETATM   18  C   UNL     1      -1.674  -3.100   0.000  1.00  0.00     0.025 A 
BRANCH  16  19
HETATM   19  C   UNL     1       0.375  -5.149   0.000  1.00  0.00     0.202 C 
HETATM   20  O   UNL     1       1.674  -4.399   0.000  1.00  0.00    -0.219 OA
ENDBRANCH  16  19
ENDBRANCH   4  16
TORSDOF 5
