REMARK  2 active torsions:
REMARK  status: ('A' for Active; 'I' for Inactive)
REMARK       I    between atoms: N_2  and  C_20 
REMARK    1  A    between atoms: N_3  and  C_6 
REMARK    2  A    between atoms: C_14  and  C_20 
ROOT
HETATM    1  N   UNL     1       6.870   1.399   0.000  1.00  0.00    -0.324 N 
HETATM    2  N   UNL     1       9.468  -0.101   0.000  1.00  0.00    -0.347 N 
HETATM    3  C   UNL     1       9.468   1.399   0.000  1.00  0.00     0.126 A 
HETATM    4  C   UNL     1       8.169   2.150   0.000  1.00  0.00     0.128 A 
HETATM    5  C   UNL     1       8.169  -0.851   0.000  1.00  0.00     0.126 A 
HETATM    6  C   UNL     1       6.870  -0.101   0.000  1.00  0.00     0.128 A 
HETATM    7  C   UNL     1       5.571   2.150   0.000  1.00  0.00     0.184 C 
HETATM    8  O   UNL     1       5.571   3.650   0.000  1.00  0.00    -0.172 OA
ENDROOT
BRANCH   7   9
HETATM    9  C   UNL     1       4.272   1.399   0.000  1.00  0.00     0.021 A 
HETATM   10  C   UNL     1       2.973   2.150   0.000  1.00  0.00     0.145 A 
HETATM   11  N   UNL     1       1.674   1.399   0.000  1.00  0.00    -0.291 NA
HETATM   12  C   UNL     1       1.674  -0.101   0.000  1.00  0.00     0.121 A 
HETATM   13  C   UNL     1       2.973  -0.851   0.000  1.00  0.00     0.030 A 
HETATM   14  C   UNL     1       4.272  -0.101   0.000  1.00  0.00     0.030 A 
ENDBRANCH   7   9
BRANCH   2  15
HETATM   15  C   UNL     1      10.767  -0.851   0.000  1.00  0.00     0.040 A 
HETATM   16  C   UNL     1      12.066  -0.100   0.000  1.00  0.00     0.044 A 
HETATM   17  C   UNL     1      13.365  -0.850   0.000  1.00  0.00     0.007 A 
HETATM   18  C   UNL     1      13.365  -2.350   0.000  1.00  0.00     0.006 A 
HETATM   19  C   UNL     1      12.066  -3.100   0.000  1.00  0.00     0.039 A 
HETATM   20  C   UNL     1      10.767  -2.350   0.000  1.00  0.00     0.047 A 
HETATM   21 CL   UNL     1       9.468  -3.100   0.000  1.00  0.00    -0.086 Cl
ENDBRANCH   2  15
TORSDOF 2
