REMARK  3 active torsions:
REMARK  status: ('A' for Active; 'I' for Inactive)
REMARK    1  A    between atoms: C_3  and  O_18 
REMARK    2  A    between atoms: C_7  and  C_16 
REMARK    3  A    between atoms: C_15  and  C_16 
ROOT
HETATM    1  C   UNL     1      -3.275  -1.574   0.000  1.00  0.00     0.100 A 
HETATM    2  C   UNL     1      -4.024  -2.873   0.000  1.00  0.00     0.131 A 
HETATM    3  C   UNL     1      -4.024  -0.275   0.000  1.00  0.00     0.078 A 
HETATM    4  C   UNL     1      -5.524  -2.873   0.000  1.00  0.00     0.100 A 
HETATM    5  C   UNL     1      -5.524  -0.275   0.000  1.00  0.00    -0.004 A 
HETATM    6  C   UNL     1      -6.274  -1.574   0.000  1.00  0.00     0.078 A 
HETATM    7  O   UNL     1      -6.274  -4.172   0.000  1.00  0.00    -0.330 OA
HETATM    8  C   UNL     1      -5.524  -5.471   0.000  1.00  0.00     0.181 A 
HETATM    9  O   UNL     1      -3.275  -4.172   0.000  1.00  0.00    -0.325 OA
HETATM   10  C   UNL     1      -4.024  -5.471   0.000  1.00  0.00     0.181 A 
ENDROOT
BRANCH   5  11
HETATM   11  C   UNL     1      -6.274   1.024   0.000  1.00  0.00     0.147 C 
HETATM   12  O   UNL     1      -5.524   2.324   0.000  1.00  0.00    -0.189 OA
BRANCH  11  13
HETATM   13  C   UNL     1      -7.774   1.024   0.000  1.00  0.00     0.135 A 
HETATM   14  S   UNL     1      -8.656   2.238   0.000  1.00  0.00    -0.069 SA
HETATM   15  C   UNL     1     -10.083   1.774   0.000  1.00  0.00     0.022 A 
HETATM   16  C   UNL     1     -11.382   2.525   0.000  1.00  0.00     0.034 A 
HETATM   17  C   UNL     1     -10.083   0.275   0.000  1.00  0.00     0.062 A 
HETATM   18  C   UNL     1     -12.681   1.774   0.000  1.00  0.00     0.006 A 
HETATM   19  C   UNL     1     -12.681   0.275   0.000  1.00  0.00     0.007 A 
HETATM   20  C   UNL     1     -11.382  -0.475   0.000  1.00  0.00     0.046 A 
HETATM   21  N   UNL     1      -8.656  -0.189   0.000  1.00  0.00    -0.241 NA
ENDBRANCH  11  13
ENDBRANCH   5  11
BRANCH   1  22
HETATM   22  O   UNL     1      -1.774  -1.574   0.000  1.00  0.00    -0.330 OA
HETATM   23  C   UNL     1      -1.024  -0.275   0.000  1.00  0.00     0.181 C 
ENDBRANCH   1  22
TORSDOF 3
