REMARK  3 active torsions:
REMARK  status: ('A' for Active; 'I' for Inactive)
REMARK    1  A    between atoms: N_2  and  C_23 
REMARK    2  A    between atoms: N_3  and  C_6 
REMARK    3  A    between atoms: C_21  and  C_23 
ROOT
HETATM    1  N   UNL     1       4.922  -5.524   0.000  1.00  0.00    -0.363 N 
HETATM    2  N   UNL     1       7.520  -7.024   0.000  1.00  0.00    -0.351 N 
HETATM    3  C   UNL     1       7.520  -5.524   0.000  1.00  0.00     0.125 A 
HETATM    4  C   UNL     1       6.221  -4.774   0.000  1.00  0.00     0.122 A 
HETATM    5  C   UNL     1       6.221  -7.774   0.000  1.00  0.00     0.125 A 
HETATM    6  C   UNL     1       4.922  -7.024   0.000  1.00  0.00     0.122 A 
ENDROOT
BRANCH   1   7
HETATM    7  C   UNL     1       3.623  -4.774   0.000  1.00  0.00     0.130 C 
BRANCH   7   8
HETATM    8  C   UNL     1       3.623  -3.275   0.000  1.00  0.00     0.173 A 
HETATM    9  C   UNL     1       2.324  -2.525   0.000  1.00  0.00     0.180 A 
HETATM   10  O   UNL     1       2.324  -1.024   0.000  1.00  0.00    -0.331 OA
HETATM   11  C   UNL     1       3.623  -0.275   0.000  1.00  0.00     0.090 A 
HETATM   12  C   UNL     1       4.922  -1.024   0.000  1.00  0.00     0.090 A 
HETATM   13  C   UNL     1       3.623   1.226   0.000  1.00  0.00     0.053 A 
HETATM   14  C   UNL     1       6.221  -0.275   0.000  1.00  0.00     0.053 A 
HETATM   15  O   UNL     1       4.922  -2.525   0.000  1.00  0.00    -0.331 OA
HETATM   16  C   UNL     1       6.221   1.226   0.000  1.00  0.00     0.007 A 
HETATM   17  C   UNL     1       4.922   1.976   0.000  1.00  0.00     0.007 A 
ENDBRANCH   7   8
ENDBRANCH   1   7
BRANCH   2  18
HETATM   18  C   UNL     1       8.819  -7.774   0.000  1.00  0.00     0.010 A 
HETATM   19  C   UNL     1      10.118  -7.024   0.000  1.00  0.00     0.039 A 
HETATM   20  C   UNL     1      11.417  -7.774   0.000  1.00  0.00     0.006 A 
HETATM   21  C   UNL     1      11.417  -9.274   0.000  1.00  0.00     0.001 A 
HETATM   22  C   UNL     1      10.118 -10.024   0.000  1.00  0.00     0.006 A 
HETATM   23  C   UNL     1       8.819  -9.274   0.000  1.00  0.00     0.039 A 
ENDBRANCH   2  18
TORSDOF 3
