REMARK  4 active torsions:
REMARK  status: ('A' for Active; 'I' for Inactive)
REMARK    1  A    between atoms: O_1  and  C_4 
REMARK    2  A    between atoms: O_1  and  C_12 
REMARK    3  A    between atoms: C_6  and  S_9 
REMARK    4  A    between atoms: C_12  and  C_13 
ROOT
HETATM    1  C   UNL     1      -4.721  -3.824   0.000  1.00  0.00     0.031 A 
HETATM    2  C   UNL     1      -6.020  -4.574   0.000  1.00  0.00     0.018 A 
HETATM    3  C   UNL     1      -3.422  -4.574   0.000  1.00  0.00     0.115 A 
HETATM    4  C   UNL     1      -3.422  -6.074   0.000  1.00  0.00     0.031 A 
HETATM    5  C   UNL     1      -6.020  -6.074   0.000  1.00  0.00     0.108 A 
HETATM    6  C   UNL     1      -4.721  -6.824   0.000  1.00  0.00     0.018 A 
ENDROOT
BRANCH   3   7
HETATM    7  O   UNL     1      -2.123  -3.824   0.000  1.00  0.00    -0.357 OA
BRANCH   7   8
HETATM    8  C   UNL     1      -0.824  -4.574   0.000  1.00  0.00     0.142 C 
BRANCH   8   9
HETATM    9  C   UNL     1       0.475  -3.824   0.000  1.00  0.00     0.032 C 
HETATM   10  C   UNL     1       0.475  -2.324   0.000  1.00  0.00     0.003 C 
ENDBRANCH   8   9
ENDBRANCH   7   8
ENDBRANCH   3   7
BRANCH   5  11
HETATM   11  S   UNL     1      -7.319  -6.824   0.000  1.00  0.00     0.170 S 
HETATM   12  C   UNL     1      -8.618  -7.574   0.000  1.00  0.00     0.140 C 
HETATM   13  O   UNL     1      -8.069  -5.524   0.000  1.00  0.00    -0.226 OA
HETATM   14  O   UNL     1      -6.569  -8.123   0.000  1.00  0.00    -0.226 OA
ENDBRANCH   5  11
TORSDOF 4
