REMARK  3 active torsions:
REMARK  status: ('A' for Active; 'I' for Inactive)
REMARK    1  A    between atoms: N_6  and  C_18 
REMARK    2  A    between atoms: C_14  and  C_18 
REMARK    3  A    between atoms: C_15  and  N_19 
ROOT
HETATM    1  N   UNL     1     -13.081   3.650   0.000  1.00  0.00    -0.220 NA
HETATM    2  O   UNL     1     -11.781   5.900   0.000  1.00  0.00    -0.168 OA
HETATM    3  N   UNL     1     -11.782   1.400   0.000  1.00  0.00    -0.339 N 
HETATM    4  H   UNL     1     -11.782  -0.100   0.000  1.00  0.00     0.164 HD
HETATM    5  N   UNL     1      -9.056   4.113   0.000  1.00  0.00    -0.239 NA
HETATM    6  N   UNL     1      -9.056   1.686   0.000  1.00  0.00    -0.314 N 
HETATM    7  C   UNL     1     -11.782   4.400   0.000  1.00  0.00     0.231 A 
HETATM    8  C   UNL     1     -10.482   3.650   0.000  1.00  0.00     0.153 A 
HETATM    9  C   UNL     1     -10.482   2.150   0.000  1.00  0.00     0.138 A 
HETATM   10  C   UNL     1      -8.174   2.900   0.000  1.00  0.00     0.232 A 
HETATM   11  C   UNL     1     -13.081   2.150   0.000  1.00  0.00     0.231 A 
ENDROOT
BRANCH   6  12
HETATM   12  C   UNL     1      -8.592   0.260   0.000  1.00  0.00     0.105 C 
BRANCH  12  13
HETATM   13  C   UNL     1      -7.125  -0.052   0.000  1.00  0.00     0.023 A 
HETATM   14  C   UNL     1      -6.122   1.063   0.000  1.00  0.00     0.008 A 
HETATM   15  C   UNL     1      -4.654   0.751   0.000  1.00  0.00     0.046 A 
HETATM   16  C   UNL     1      -4.191  -0.676   0.000  1.00  0.00     0.082 A 
HETATM   17  C   UNL     1      -5.194  -1.791   0.000  1.00  0.00     0.046 A 
HETATM   18  C   UNL     1      -6.662  -1.479   0.000  1.00  0.00     0.008 A 
BRANCH  16  19
HETATM   19  N   UNL     1      -2.724  -0.988   0.000  1.00  0.00    -0.122 N 
HETATM   20  O   UNL     1      -1.720   0.127   0.000  1.00  0.00    -0.532 OA
HETATM   21  O   UNL     1      -2.260  -2.414   0.000  1.00  0.00    -0.532 OA
ENDBRANCH  16  19
ENDBRANCH  12  13
ENDBRANCH   6  12
TORSDOF 3
