REMARK  6 active torsions:
REMARK  status: ('A' for Active; 'I' for Inactive)
REMARK    1  A    between atoms: P_2  and  N_10 
REMARK    2  A    between atoms: P_2  and  O_11 
REMARK    3  A    between atoms: P_2  and  O_14 
REMARK    4  A    between atoms: C_4  and  N_10 
REMARK    5  A    between atoms: O_11  and  C_12 
REMARK    6  A    between atoms: O_14  and  C_15 
ROOT
HETATM    1  P   UNL     1      -4.647  -3.348   0.000  1.00  0.00     0.459 P 
HETATM    2  O   UNL     1      -5.397  -4.647   0.000  1.00  0.00    -0.232 OA
ENDROOT
BRANCH   1   3
HETATM    3  N   UNL     1      -5.946  -2.598   0.000  1.00  0.00    -0.163 NA
BRANCH   3   4
HETATM    4  C   UNL     1      -7.245  -3.348   0.000  1.00  0.00     0.140 A 
HETATM    5  N   UNL     1      -8.544  -2.598   0.000  1.00  0.00    -0.257 NA
HETATM    6  C   UNL     1      -9.843  -3.348   0.000  1.00  0.00     0.127 A 
HETATM    7  C   UNL     1      -9.843  -4.848   0.000  1.00  0.00     0.025 A 
HETATM    8  C   UNL     1      -8.544  -5.598   0.000  1.00  0.00     0.010 A 
HETATM    9  C   UNL     1     -11.142  -5.598   0.000  1.00  0.00     0.002 C 
HETATM   10  C   UNL     1      -7.245  -4.848   0.000  1.00  0.00     0.066 A 
ENDBRANCH   3   4
ENDBRANCH   1   3
BRANCH   1  11
HETATM   11  O   UNL     1      -3.897  -2.049   0.000  1.00  0.00    -0.278 OA
BRANCH  11  12
HETATM   12  C   UNL     1      -4.647  -0.750   0.000  1.00  0.00     0.153 C 
HETATM   13  C   UNL     1      -6.147  -0.750   0.000  1.00  0.00     0.035 C 
ENDBRANCH  11  12
ENDBRANCH   1  11
BRANCH   1  14
HETATM   14  O   UNL     1      -3.348  -4.098   0.000  1.00  0.00    -0.278 OA
BRANCH  14  15
HETATM   15  C   UNL     1      -2.049  -3.348   0.000  1.00  0.00     0.153 C 
HETATM   16  C   UNL     1      -0.750  -4.098   0.000  1.00  0.00     0.035 C 
ENDBRANCH  14  15
ENDBRANCH   1  14
TORSDOF 6
