REMARK  3 active torsions:
REMARK  status: ('A' for Active; 'I' for Inactive)
REMARK       I    between atoms: N_1  and  C_23 
REMARK    1  A    between atoms: C_2  and  C_3 
REMARK    2  A    between atoms: C_2  and  C_23 
REMARK    3  A    between atoms: C_3  and  C_25 
REMARK       I    between atoms: N_4  and  C_25 
ROOT
HETATM    1  C   UNL     1       9.468   1.400   0.000  1.00  0.00     0.063 C 
ENDROOT
BRANCH   1   2
HETATM    2  C   UNL     1      10.767   2.150   0.000  1.00  0.00     0.063 C 
BRANCH   2   3
HETATM    3  C   UNL     1      12.066   1.400   0.000  1.00  0.00     0.179 C 
HETATM    4  N   UNL     1      12.066  -0.100   0.000  1.00  0.00    -0.324 N 
HETATM    5  C   UNL     1      13.365  -0.850   0.000  1.00  0.00     0.125 A 
HETATM    6  C   UNL     1      10.767  -0.850   0.000  1.00  0.00     0.108 A 
HETATM    7  C   UNL     1      13.365  -2.350   0.000  1.00  0.00    -0.030 A 
HETATM    8  C   UNL     1      14.664  -3.100   0.000  1.00  0.00     0.023 A 
HETATM    9  C   UNL     1      12.066  -3.100   0.000  1.00  0.00    -0.048 A 
HETATM   10  C   UNL     1      14.664  -4.600   0.000  1.00  0.00     0.005 A 
HETATM   11  C   UNL     1      13.365  -5.350   0.000  1.00  0.00     0.005 A 
HETATM   12  C   UNL     1      12.066  -4.600   0.000  1.00  0.00     0.021 A 
HETATM   13  C   UNL     1      10.767  -2.350   0.000  1.00  0.00     0.046 A 
HETATM   14  O   UNL     1      13.365   2.150   0.000  1.00  0.00    -0.172 OA
ENDBRANCH   2   3
ENDBRANCH   1   2
BRANCH   1  15
HETATM   15  C   UNL     1       8.169   2.150   0.000  1.00  0.00     0.179 C 
HETATM   16  N   UNL     1       6.870   1.400   0.000  1.00  0.00    -0.324 N 
HETATM   17  C   UNL     1       5.571   2.150   0.000  1.00  0.00     0.125 A 
HETATM   18  C   UNL     1       6.870  -0.100   0.000  1.00  0.00     0.108 A 
HETATM   19  C   UNL     1       4.272   1.399   0.000  1.00  0.00    -0.030 A 
HETATM   20  C   UNL     1       4.272  -0.101   0.000  1.00  0.00    -0.048 A 
HETATM   21  C   UNL     1       2.973   2.150   0.000  1.00  0.00     0.023 A 
HETATM   22  C   UNL     1       2.973  -0.851   0.000  1.00  0.00     0.021 A 
HETATM   23  C   UNL     1       5.571  -0.851   0.000  1.00  0.00     0.046 A 
HETATM   24  C   UNL     1       1.674  -0.101   0.000  1.00  0.00     0.005 A 
HETATM   25  C   UNL     1       1.674   1.399   0.000  1.00  0.00     0.005 A 
HETATM   26  O   UNL     1       8.169   3.650   0.000  1.00  0.00    -0.172 OA
ENDBRANCH   1  15
TORSDOF 3
