REMARK  1 active torsions:
REMARK  status: ('A' for Active; 'I' for Inactive)
REMARK    1  A    between atoms: N_6  and  C_16 
ROOT
HETATM    1  O   UNL     1       0.750   2.250   0.000  1.00  0.00    -0.150 OA
HETATM    2  N   UNL     1       2.049   4.500   0.000  1.00  0.00    -0.268 N 
HETATM    3  N   UNL     1       3.348   2.250   0.000  1.00  0.00    -0.276 N 
HETATM    4  O   UNL     1       3.348   6.750   0.000  1.00  0.00    -0.169 OA
HETATM    5  N   UNL     1       6.074   4.963   0.000  1.00  0.00    -0.285 N 
HETATM    6  N   UNL     1       6.074   2.537   0.000  1.00  0.00    -0.278 N 
HETATM    7  O   UNL     1       8.455   3.750   0.000  1.00  0.00    -0.151 OA
HETATM    8  C   UNL     1       3.348   5.250   0.000  1.00  0.00     0.216 A 
HETATM    9  C   UNL     1       4.647   4.500   0.000  1.00  0.00     0.138 A 
HETATM   10  C   UNL     1       4.647   3.000   0.000  1.00  0.00     0.150 A 
HETATM   11  C   UNL     1       6.955   3.750   0.000  1.00  0.00     0.264 A 
HETATM   12  C   UNL     1       2.049   3.000   0.000  1.00  0.00     0.266 A 
HETATM   13  C   UNL     1       0.750   5.250   0.000  1.00  0.00     0.136 C 
HETATM   14  C   UNL     1       3.348   0.750   0.000  1.00  0.00     0.136 C 
HETATM   15  C   UNL     1       6.537   6.390   0.000  1.00  0.00     0.134 C 
ENDROOT
BRANCH   6  16
HETATM   16  C   UNL     1       6.537   1.110   0.000  1.00  0.00     0.111 C 
HETATM   17  C   UNL     1       8.005   0.798   0.000  1.00  0.00     0.027 C 
ENDBRANCH   6  16
TORSDOF 1
