REMARK  0 active torsions:
REMARK  status: ('A' for Active; 'I' for Inactive)
ROOT
HETATM    1 BR   UNL     1      -4.821  -5.149   0.000  1.00  0.00    -0.058 Br
HETATM    2 BR   UNL     1       0.375  -5.149   0.000  1.00  0.00    -0.053 Br
HETATM    3  C   UNL     1      -2.223  -2.150   0.000  1.00  0.00     0.046 A 
HETATM    4  C   UNL     1      -0.924  -2.900   0.000  1.00  0.00     0.051 A 
HETATM    5  C   UNL     1      -3.522  -2.900   0.000  1.00  0.00     0.035 A 
HETATM    6  C   UNL     1      -0.924  -4.399   0.000  1.00  0.00     0.026 A 
HETATM    7  C   UNL     1      -3.522  -4.399   0.000  1.00  0.00    -0.004 A 
HETATM    8  C   UNL     1      -2.223  -5.149   0.000  1.00  0.00     0.063 A 
HETATM    9  N   UNL     1       0.375  -2.150   0.000  1.00  0.00    -0.105 NA
ENDROOT
TORSDOF 0
