REMARK  1 active torsions:
REMARK  status: ('A' for Active; 'I' for Inactive)
REMARK    1  A    between atoms: C_6  and  C_8 
ROOT
HETATM    1  C   UNL     1      -1.489  -4.931   0.000  1.00  0.00     0.377 A 
HETATM    2  F   UNL     1      -2.788  -4.181   0.000  1.00  0.00    -0.190 F 
HETATM    3  F   UNL     1      -0.190  -5.681   0.000  1.00  0.00    -0.188 F 
HETATM    4  C   UNL     1      -0.739  -3.632   0.000  1.00  0.00     0.410 A 
HETATM    5  F   UNL     1      -2.038  -2.882   0.000  1.00  0.00    -0.189 F 
HETATM    6  F   UNL     1      -0.739  -2.132   0.000  1.00  0.00    -0.189 F 
HETATM    7  C   UNL     1       0.761  -3.632   0.000  1.00  0.00     0.461 A 
HETATM    8  F   UNL     1       0.761  -5.132   0.000  1.00  0.00    -0.167 F 
HETATM    9  F   UNL     1       0.761  -2.132   0.000  1.00  0.00    -0.165 F 
HETATM   10  F   UNL     1       2.261  -3.632   0.000  1.00  0.00    -0.165 F 
ENDROOT
BRANCH   1  11
HETATM   11  C   UNL     1      -2.239  -6.230   0.000  1.00  0.00     0.204 A 
HETATM   12  N   UNL     1      -3.731  -6.387   0.000  1.00  0.00    -0.242 N 
HETATM   13  O   UNL     1      -4.043  -7.854   0.000  1.00  0.00    -0.206 OA
HETATM   14  H   UNL     1      -4.734  -5.272   0.000  1.00  0.00     0.196 HD
HETATM   15  C   UNL     1      -2.744  -8.604   0.000  1.00  0.00     0.405 A 
HETATM   16  O   UNL     1      -2.587 -10.096   0.000  1.00  0.00    -0.160 OA
HETATM   17  N   UNL     1      -1.629  -7.600   0.000  1.00  0.00    -0.193 NA
ENDBRANCH   1  11
TORSDOF 1
