REMARK  3 active torsions:
REMARK  status: ('A' for Active; 'I' for Inactive)
REMARK    1  A    between atoms: N_1  and  C_24 
REMARK    2  A    between atoms: N_2  and  C_5 
REMARK    3  A    between atoms: C_15  and  C_24 
ROOT
HETATM    1  N   UNL     1      -0.275  10.024   0.000  1.00  0.00    -0.337 N 
HETATM    2  N   UNL     1       2.324  11.524   0.000  1.00  0.00    -0.347 N 
HETATM    3  C   UNL     1       1.024  12.274   0.000  1.00  0.00     0.126 A 
HETATM    4  C   UNL     1      -0.275  11.524   0.000  1.00  0.00     0.126 A 
HETATM    5  C   UNL     1       2.324  10.024   0.000  1.00  0.00     0.126 A 
HETATM    6  C   UNL     1       1.024   9.274   0.000  1.00  0.00     0.126 A 
ENDROOT
BRANCH   1   7
HETATM    7  C   UNL     1      -1.574   9.274   0.000  1.00  0.00     0.105 C 
HETATM    8  S   UNL     1      -2.873  10.024   0.000  1.00  0.00    -0.060 SA
BRANCH   7   9
HETATM    9  C   UNL     1      -1.574   7.774   0.000  1.00  0.00    -0.011 A 
HETATM   10  C   UNL     1      -2.873   7.024   0.000  1.00  0.00     0.077 A 
HETATM   11  C   UNL     1      -2.873   5.524   0.000  1.00  0.00     0.094 A 
HETATM   12  C   UNL     1      -1.573   4.774   0.000  1.00  0.00     0.090 A 
HETATM   13  O   UNL     1      -4.172   4.774   0.000  1.00  0.00    -0.330 OA
HETATM   14  C   UNL     1      -0.275   5.524   0.000  1.00  0.00     0.057 A 
HETATM   15  O   UNL     1      -1.573   3.275   0.000  1.00  0.00    -0.331 OA
HETATM   16  C   UNL     1      -0.275   7.024   0.000  1.00  0.00     0.032 A 
HETATM   17  C   UNL     1      -2.873   2.525   0.000  1.00  0.00     0.181 A 
HETATM   18  C   UNL     1      -4.172   3.275   0.000  1.00  0.00     0.181 A 
ENDBRANCH   7   9
ENDBRANCH   1   7
BRANCH   2  19
HETATM   19  C   UNL     1       3.623  12.274   0.000  1.00  0.00     0.040 A 
HETATM   20  C   UNL     1       3.623  13.774   0.000  1.00  0.00     0.044 A 
HETATM   21  C   UNL     1       4.922  14.524   0.000  1.00  0.00     0.007 A 
HETATM   22  C   UNL     1       6.221  13.774   0.000  1.00  0.00     0.006 A 
HETATM   23  C   UNL     1       6.221  12.274   0.000  1.00  0.00     0.039 A 
HETATM   24  C   UNL     1       4.922  11.524   0.000  1.00  0.00     0.047 A 
HETATM   25 CL   UNL     1       4.922  10.024   0.000  1.00  0.00    -0.086 Cl
ENDBRANCH   2  19
TORSDOF 3
