REMARK  2 active torsions:
REMARK  status: ('A' for Active; 'I' for Inactive)
REMARK    1  A    between atoms: C_3  and  C_18 
REMARK    2  A    between atoms: C_8  and  N_17 
REMARK       I    between atoms: N_17  and  C_18 
ROOT
HETATM    1  C   UNL     1      -5.521  -5.554   0.000  1.00  0.00     0.063 A 
HETATM    2  C   UNL     1      -4.222  -6.304   0.000  1.00  0.00     0.043 A 
HETATM    3  C   UNL     1      -6.820  -6.304   0.000  1.00  0.00    -0.046 A 
HETATM    4  C   UNL     1      -8.119  -5.554   0.000  1.00  0.00     0.022 A 
HETATM    5  C   UNL     1      -9.418  -6.304   0.000  1.00  0.00     0.005 A 
HETATM    6  C   UNL     1      -4.222  -7.804   0.000  1.00  0.00     0.046 A 
HETATM    7  C   UNL     1      -6.820  -7.804   0.000  1.00  0.00    -0.051 A 
HETATM    8  C   UNL     1      -9.418  -7.804   0.000  1.00  0.00     0.005 A 
HETATM    9  C   UNL     1      -5.521  -8.554   0.000  1.00  0.00     0.027 A 
HETATM   10  C   UNL     1      -8.119  -8.554   0.000  1.00  0.00     0.021 A 
ENDROOT
BRANCH   2  11
HETATM   11  N   UNL     1      -2.923  -5.554   0.000  1.00  0.00    -0.229 NA
HETATM   12  C   UNL     1      -2.923  -4.054   0.000  1.00  0.00     0.210 C 
HETATM   13  O   UNL     1      -4.222  -3.304   0.000  1.00  0.00    -0.170 OA
BRANCH  12  14
HETATM   14  C   UNL     1      -1.624  -3.304   0.000  1.00  0.00     0.043 A 
HETATM   15  C   UNL     1      -1.467  -1.812   0.000  1.00  0.00     0.032 A 
HETATM   16  C   UNL     1       0.000  -1.500   0.000  1.00  0.00     0.012 A 
HETATM   17  C   UNL     1       0.750  -2.799   0.000  1.00  0.00     0.054 A 
HETATM   18  C   UNL     1      -0.254  -3.914   0.000  1.00  0.00     0.108 A 
HETATM   19  O   UNL     1       0.058  -5.381   0.000  1.00  0.00    -0.195 OA
ENDBRANCH  12  14
ENDBRANCH   2  11
TORSDOF 2
