REMARK  4 active torsions:
REMARK  status: ('A' for Active; 'I' for Inactive)
REMARK    1  A    between atoms: O_1  and  C_13 
REMARK    2  A    between atoms: O_1  and  C_14 
REMARK    3  A    between atoms: C_6  and  C_9 
REMARK    4  A    between atoms: C_14  and  C_15 
ROOT
HETATM    1  N   UNL     1      -1.366  -5.365   0.000  1.00  0.00    -0.253 NA
HETATM    2  N   UNL     1      -0.067  -7.615   0.000  1.00  0.00    -0.208 NA
HETATM    3  C   UNL     1      -0.067  -6.115   0.000  1.00  0.00     0.152 A 
HETATM    4  C   UNL     1      -2.665  -6.115   0.000  1.00  0.00     0.136 A 
HETATM    5  C   UNL     1      -2.665  -7.615   0.000  1.00  0.00     0.098 A 
HETATM    6  C   UNL     1      -1.366  -8.365   0.000  1.00  0.00     0.157 A 
ENDROOT
BRANCH   3   7
HETATM    7  C   UNL     1       1.232  -5.365   0.000  1.00  0.00    -0.009 A 
HETATM    8  C   UNL     1       1.232  -3.865   0.000  1.00  0.00     0.025 A 
HETATM    9  C   UNL     1       2.531  -3.115   0.000  1.00  0.00     0.004 A 
HETATM   10  C   UNL     1       3.830  -3.865   0.000  1.00  0.00     0.001 A 
HETATM   11  C   UNL     1       3.830  -5.365   0.000  1.00  0.00     0.004 A 
HETATM   12  C   UNL     1       2.531  -6.115   0.000  1.00  0.00     0.025 A 
ENDBRANCH   3   7
BRANCH   6  13
HETATM   13  O   UNL     1      -1.366  -9.865   0.000  1.00  0.00    -0.318 OA
BRANCH  13  14
HETATM   14  C   UNL     1      -0.067 -10.615   0.000  1.00  0.00     0.150 C 
BRANCH  14  15
HETATM   15  C   UNL     1       1.232  -9.865   0.000  1.00  0.00     0.033 C 
HETATM   16  C   UNL     1       2.531 -10.615   0.000  1.00  0.00     0.003 C 
ENDBRANCH  14  15
ENDBRANCH  13  14
ENDBRANCH   6  13
TORSDOF 4
