REMARK  0 active torsions:
REMARK  status: ('A' for Active; 'I' for Inactive)
ROOT
HETATM    1  N   UNL     1      -4.647  -2.250   0.000  1.00  0.00    -0.246 NA
HETATM    2  N   UNL     1      -4.647  -5.250   0.000  1.00  0.00    -0.252 NA
HETATM    3  C   UNL     1      -2.049  -2.250   0.000  1.00  0.00     0.127 A 
HETATM    4  C   UNL     1      -0.750  -3.000   0.000  1.00  0.00     0.056 A 
HETATM    5  C   UNL     1      -3.348  -3.000   0.000  1.00  0.00     0.116 A 
HETATM    6  C   UNL     1      -0.750  -4.500   0.000  1.00  0.00     0.013 A 
HETATM    7  C   UNL     1      -3.348  -4.500   0.000  1.00  0.00     0.078 A 
HETATM    8  C   UNL     1      -2.049  -5.250   0.000  1.00  0.00     0.048 A 
HETATM    9  C   UNL     1      -7.245  -2.250   0.000  1.00  0.00     0.047 A 
HETATM   10  C   UNL     1      -5.946  -3.000   0.000  1.00  0.00     0.073 A 
HETATM   11  C   UNL     1      -8.544  -3.000   0.000  1.00  0.00     0.007 A 
HETATM   12  C   UNL     1      -5.946  -4.500   0.000  1.00  0.00     0.072 A 
HETATM   13  C   UNL     1      -8.544  -4.500   0.000  1.00  0.00     0.007 A 
HETATM   14  C   UNL     1      -7.245  -5.250   0.000  1.00  0.00     0.047 A 
HETATM   15  O   UNL     1      -2.049  -0.750   0.000  1.00  0.00    -0.193 OA
ENDROOT
TORSDOF 0
