REMARK  1 active torsions:
REMARK  status: ('A' for Active; 'I' for Inactive)
REMARK    1  A    between atoms: N_9  and  C_11 
ROOT
HETATM    1  C   UNL     1      -1.144  -8.991   0.000  1.00  0.00     0.007 A 
HETATM    2  C   UNL     1      -0.681 -10.418   0.000  1.00  0.00     0.007 A 
HETATM    3  C   UNL     1      -0.141  -7.877   0.000  1.00  0.00     0.045 A 
HETATM    4  C   UNL     1       0.786 -10.730   0.000  1.00  0.00     0.045 A 
HETATM    5  C   UNL     1       1.327  -8.188   0.000  1.00  0.00     0.055 A 
HETATM    6  C   UNL     1       1.790  -9.615   0.000  1.00  0.00     0.049 A 
HETATM    7  N   UNL     1       2.540  -7.307   0.000  1.00  0.00    -0.282 N 
HETATM    8  N   UNL     1       3.290  -9.615   0.000  1.00  0.00    -0.321 N 
HETATM    9  C   UNL     1       3.754  -8.188   0.000  1.00  0.00     0.263 A 
HETATM   10  H   UNL     1       4.172 -10.828   0.000  1.00  0.00     0.169 HD
HETATM   11  O   UNL     1       5.180  -7.725   0.000  1.00  0.00    -0.150 OA
ENDROOT
BRANCH   7  12
HETATM   12  C   UNL     1       2.540  -5.807   0.000  1.00  0.00     0.026 A 
HETATM   13  C   UNL     1       1.241  -5.057   0.000  1.00  0.00     0.063 A 
HETATM   14  C   UNL     1       1.241  -3.557   0.000  1.00  0.00     0.100 A 
HETATM   15  N   UNL     1       2.540  -2.807   0.000  1.00  0.00    -0.393 N 
HETATM   16  H   UNL     1       2.540  -1.307   0.000  1.00  0.00     0.155 HD
HETATM   17  C   UNL     1       3.839  -3.557   0.000  1.00  0.00     0.100 A 
HETATM   18  C   UNL     1       3.839  -5.057   0.000  1.00  0.00     0.063 A 
ENDBRANCH   7  12
TORSDOF 1
