REMARK  0 active torsions:
REMARK  status: ('A' for Active; 'I' for Inactive)
ROOT
HETATM    1  O   UNL     1      -8.254 -14.204   0.000  1.00  0.00    -0.224 OA
HETATM    2  S   UNL     1      -1.646  -2.896   0.000  1.00  0.00    -0.104 SA
HETATM    3  N   UNL     1       0.302  -4.344   0.000  1.00  0.00     0.345 N 
HETATM    4  C   UNL     1      -0.146  -2.912   0.000  1.00  0.00     0.304 A 
HETATM    5  C   UNL     1      -2.125  -4.318   0.000  1.00  0.00     0.094 A 
HETATM    6  C   UNL     1      -0.921  -5.212   0.000  1.00  0.00     0.242 A 
HETATM    7  C   UNL     1      -0.937  -6.712   0.000  1.00  0.00     0.040 A 
HETATM    8  C   UNL     1      -2.160  -7.581   0.000  1.00  0.00     0.017 A 
HETATM    9  C   UNL     1       0.267  -7.607   0.000  1.00  0.00     0.002 A 
HETATM   10  C   UNL     1      -3.624  -7.253   0.000  1.00  0.00    -0.051 A 
HETATM   11  C   UNL     1      -4.639  -8.357   0.000  1.00  0.00    -0.059 A 
HETATM   12  C   UNL     1      -0.212  -9.028   0.000  1.00  0.00    -0.006 A 
HETATM   13  C   UNL     1      -1.712  -9.012   0.000  1.00  0.00     0.017 A 
HETATM   14  C   UNL     1      -4.191  -9.788   0.000  1.00  0.00     0.037 A 
HETATM   15  C   UNL     1      -2.728 -10.116   0.000  1.00  0.00     0.012 A 
HETATM   16  C   UNL     1      -5.207 -10.892   0.000  1.00  0.00     0.002 A 
HETATM   17  C   UNL     1      -6.671 -10.565   0.000  1.00  0.00     0.006 A 
HETATM   18  C   UNL     1      -7.686 -11.668   0.000  1.00  0.00     0.033 A 
HETATM   19  C   UNL     1      -2.279 -11.548   0.000  1.00  0.00    -0.006 A 
HETATM   20  C   UNL     1      -4.759 -12.324   0.000  1.00  0.00     0.003 A 
HETATM   21  C   UNL     1      -7.238 -13.100   0.000  1.00  0.00     0.152 A 
HETATM   22  C   UNL     1      -3.295 -12.651   0.000  1.00  0.00    -0.000 A 
HETATM   23  C   UNL     1      -5.774 -13.428   0.000  1.00  0.00     0.033 A 
HETATM   24  C   UNL     1      -5.655  -9.461   0.000  1.00  0.00     0.012 A 
HETATM   25  C   UNL     1      -2.456  -6.110   0.000  1.00  0.00     0.050 A 
HETATM   26  C   UNL     1       0.749  -1.708   0.000  1.00  0.00     0.050 C 
ENDROOT
TORSDOF 0
