REMARK  2 active torsions:
REMARK  status: ('A' for Active; 'I' for Inactive)
REMARK    1  A    between atoms: C_5  and  O_11 
REMARK    2  A    between atoms: C_8  and  O_14 
ROOT
HETATM    1  O   UNL     1      -1.632  -1.036   0.000  1.00  0.00    -0.328 OA
HETATM    2  O   UNL     1      -1.168  -4.890   0.000  1.00  0.00    -0.192 OA
HETATM    3  C   UNL     1      -4.357  -0.750   0.000  1.00  0.00     0.104 A 
HETATM    4  C   UNL     1      -3.058  -1.500   0.000  1.00  0.00     0.082 A 
HETATM    5  C   UNL     1      -5.656  -1.500   0.000  1.00  0.00     0.105 A 
HETATM    6  C   UNL     1      -3.058  -3.000   0.000  1.00  0.00     0.067 A 
HETATM    7  C   UNL     1      -5.656  -3.000   0.000  1.00  0.00     0.172 A 
HETATM    8  C   UNL     1      -4.357  -3.750   0.000  1.00  0.00     0.124 A 
HETATM    9  C   UNL     1      -1.632  -3.463   0.000  1.00  0.00     0.142 A 
HETATM   10  C   UNL     1      -0.750  -2.250   0.000  1.00  0.00     0.202 A 
HETATM   11  O   UNL     1      -6.955  -3.750   0.000  1.00  0.00    -0.186 OA
ENDROOT
BRANCH   5  12
HETATM   12  O   UNL     1      -6.955  -0.750   0.000  1.00  0.00    -0.330 OA
HETATM   13  C   UNL     1      -8.254  -1.500   0.000  1.00  0.00     0.181 C 
ENDBRANCH   5  12
BRANCH   8  14
HETATM   14  O   UNL     1      -4.357  -5.250   0.000  1.00  0.00    -0.326 OA
HETATM   15  C   UNL     1      -5.656  -6.000   0.000  1.00  0.00     0.181 C 
ENDBRANCH   8  14
TORSDOF 2
