REMARK  2 active torsions:
REMARK  status: ('A' for Active; 'I' for Inactive)
REMARK       I    between atoms: N_1  and  C_10 
REMARK    1  A    between atoms: C_2  and  C_4 
REMARK    2  A    between atoms: C_10  and  C_12 
ROOT
HETATM    1  N   UNL     1      -5.114   0.171   0.000  1.00  0.00     0.033 N 
HETATM    2  C   UNL     1      -6.087   2.693   0.000  1.00  0.00     0.061 A 
HETATM    3  C   UNL     1      -4.993   1.666   0.000  1.00  0.00     0.225 A 
HETATM    4  C   UNL     1      -7.571   2.478   0.000  1.00  0.00     0.006 A 
HETATM    5  C   UNL     1      -6.036   1.101   0.000  1.00  0.00     0.199 A 
HETATM    6  C   UNL     1      -8.329   1.183   0.000  1.00  0.00     0.004 A 
HETATM    7  C   UNL     1      -7.839   1.375   0.000  1.00  0.00     0.030 A 
HETATM    8  C   UNL     1      -7.789  -0.216   0.000  1.00  0.00     0.033 A 
HETATM    9  C   UNL     1      -6.358  -0.667   0.000  1.00  0.00     0.225 A 
HETATM   10  C   UNL     1      -3.819  -0.587   0.000  1.00  0.00     0.314 C 
HETATM   11  O   UNL     1      -2.516   0.156   0.000  1.00  0.00    -0.161 OA
ENDROOT
BRANCH  10  12
HETATM   12  C   UNL     1      -3.828  -2.087   0.000  1.00  0.00     0.165 C 
HETATM   13 CL   UNL     1      -2.533  -2.844   0.000  1.00  0.00    -0.066 Cl
HETATM   14 CL   UNL     1      -5.131  -2.829   0.000  1.00  0.00    -0.066 Cl
ENDBRANCH  10  12
TORSDOF 2
