REMARK  4 active torsions:
REMARK  status: ('A' for Active; 'I' for Inactive)
REMARK    1  A    between atoms: N_3  and  C_25 
REMARK    2  A    between atoms: O_4  and  C_19 
REMARK    3  A    between atoms: O_4  and  C_26 
REMARK    4  A    between atoms: C_24  and  C_25 
ROOT
HETATM    1  C   UNL     1       2.438  -4.704   0.000  1.00  0.00     0.126 A 
HETATM    2  C   UNL     1       1.224  -5.586   0.000  1.00  0.00     0.023 A 
HETATM    3  C   UNL     1       3.651  -5.586   0.000  1.00  0.00     0.030 A 
HETATM    4  C   UNL     1      -0.243  -5.274   0.000  1.00  0.00     0.004 A 
HETATM    5  C   UNL     1      -1.247  -6.388   0.000  1.00  0.00    -0.002 A 
HETATM    6  C   UNL     1       3.188  -7.012   0.000  1.00  0.00    -0.004 A 
HETATM    7  C   UNL     1       1.688  -7.012   0.000  1.00  0.00     0.016 A 
HETATM    8  C   UNL     1      -0.783  -7.815   0.000  1.00  0.00     0.032 A 
HETATM    9  C   UNL     1       0.684  -8.127   0.000  1.00  0.00     0.012 A 
HETATM   10  C   UNL     1      -1.787  -8.930   0.000  1.00  0.00    -0.058 A 
HETATM   11  C   UNL     1      -3.254  -8.618   0.000  1.00  0.00     0.023 A 
HETATM   12  C   UNL     1      -4.258  -9.733   0.000  1.00  0.00     0.035 A 
HETATM   13  C   UNL     1       1.147  -9.553   0.000  1.00  0.00    -0.002 A 
HETATM   14  C   UNL     1      -1.324 -10.356   0.000  1.00  0.00    -0.050 A 
HETATM   15  C   UNL     1      -3.795 -11.159   0.000  1.00  0.00     0.129 A 
HETATM   16  C   UNL     1       0.144 -10.668   0.000  1.00  0.00     0.021 A 
HETATM   17  C   UNL     1      -2.327 -11.471   0.000  1.00  0.00     0.052 A 
HETATM   18  C   UNL     1       0.912  -4.118   0.000  1.00  0.00     0.030 A 
HETATM   19  O   UNL     1       2.438  -3.204   0.000  1.00  0.00    -0.226 OA
ENDROOT
BRANCH  15  20
HETATM   20  O   UNL     1      -4.798 -12.274   0.000  1.00  0.00    -0.299 OA
BRANCH  20  21
HETATM   21  C   UNL     1      -6.265 -11.962   0.000  1.00  0.00     0.281 A 
HETATM   22  N   UNL     1      -7.269 -13.077   0.000  1.00  0.00    -0.306 N 
HETATM   23  C   UNL     1      -8.736 -12.765   0.000  1.00  0.00     0.124 A 
HETATM   24  C   UNL     1      -9.200 -11.338   0.000  1.00  0.00     0.134 A 
HETATM   25 CL   UNL     1      -8.196 -10.224   0.000  1.00  0.00    -0.040 Cl
HETATM   26  O   UNL     1      -6.729 -10.536   0.000  1.00  0.00    -0.215 OA
BRANCH  22  27
HETATM   27  C   UNL     1      -6.806 -14.503   0.000  1.00  0.00     0.123 C 
BRANCH  27  28
HETATM   28  C   UNL     1      -7.809 -15.618   0.000  1.00  0.00     0.119 C 
HETATM   29 CL   UNL     1      -9.277 -15.306   0.000  1.00  0.00    -0.112 Cl
ENDBRANCH  27  28
ENDBRANCH  22  27
ENDBRANCH  20  21
ENDBRANCH  15  20
TORSDOF 4
