REMARK  2 active torsions:
REMARK  status: ('A' for Active; 'I' for Inactive)
REMARK    1  A    between atoms: C_3  and  C_10 
REMARK    2  A    between atoms: C_5  and  N_7 
ROOT
HETATM    1  C   UNL     1       2.873   5.524   0.000  1.00  0.00     0.030 A 
HETATM    2  C   UNL     1       1.574   4.774   0.000  1.00  0.00     0.050 A 
HETATM    3  C   UNL     1       4.172   4.774   0.000  1.00  0.00    -0.020 A 
HETATM    4  C   UNL     1       4.172   3.275   0.000  1.00  0.00     0.030 A 
HETATM    5  C   UNL     1       1.574   3.275   0.000  1.00  0.00     0.083 A 
HETATM    6  C   UNL     1       2.873   2.525   0.000  1.00  0.00     0.050 A 
ENDROOT
BRANCH   3   7
HETATM    7  C   UNL     1       5.471   5.524   0.000  1.00  0.00     0.125 A 
HETATM    8  O   UNL     1       6.770   4.774   0.000  1.00  0.00    -0.192 OA
HETATM    9  O   UNL     1       8.069   5.524   0.000  1.00  0.00    -0.176 OA
HETATM   10  C   UNL     1       8.069   7.024   0.000  1.00  0.00     0.186 A 
HETATM   11  N   UNL     1       6.770   7.774   0.000  1.00  0.00    -0.243 NA
HETATM   12  C   UNL     1       9.368   7.774   0.000  1.00  0.00     0.083 C 
HETATM   13  C   UNL     1       5.471   7.024   0.000  1.00  0.00     0.181 A 
ENDBRANCH   3   7
BRANCH   5  14
HETATM   14  N   UNL     1       0.275   2.525   0.000  1.00  0.00    -0.122 N 
HETATM   15  O   UNL     1      -1.024   3.275   0.000  1.00  0.00    -0.532 OA
HETATM   16  O   UNL     1       0.275   1.024   0.000  1.00  0.00    -0.532 OA
ENDBRANCH   5  14
TORSDOF 2
