REMARK  0 active torsions:
REMARK  status: ('A' for Active; 'I' for Inactive)
ROOT
HETATM    1  O   UNL     1       4.647   0.750   0.000  1.00  0.00    -0.316 OA
HETATM    2  C   UNL     1       5.946   6.000   0.000  1.00  0.00     0.009 A 
HETATM    3  C   UNL     1       4.647   5.250   0.000  1.00  0.00     0.026 A 
HETATM    4  C   UNL     1       7.245   5.250   0.000  1.00  0.00     0.022 A 
HETATM    5  C   UNL     1       7.245   3.750   0.000  1.00  0.00    -0.043 A 
HETATM    6  C   UNL     1       4.647   3.750   0.000  1.00  0.00    -0.024 A 
HETATM    7  C   UNL     1       8.544   3.000   0.000  1.00  0.00     0.022 A 
HETATM    8  C   UNL     1       5.946   3.000   0.000  1.00  0.00     0.007 A 
HETATM    9  C   UNL     1       3.348   3.000   0.000  1.00  0.00    -0.007 A 
HETATM   10  C   UNL     1       2.049   3.750   0.000  1.00  0.00     0.028 A 
HETATM   11  C   UNL     1       0.750   3.000   0.000  1.00  0.00     0.005 A 
HETATM   12  C   UNL     1       8.544   1.500   0.000  1.00  0.00     0.011 A 
HETATM   13  C   UNL     1       5.946   1.500   0.000  1.00  0.00     0.076 A 
HETATM   14  C   UNL     1       3.348   1.500   0.000  1.00  0.00     0.073 A 
HETATM   15  C   UNL     1       0.750   1.500   0.000  1.00  0.00     0.007 A 
HETATM   16  C   UNL     1       7.245   0.750   0.000  1.00  0.00     0.052 A 
HETATM   17  C   UNL     1       2.049   0.750   0.000  1.00  0.00     0.051 A 
ENDROOT
TORSDOF 0
