REMARK  1 active torsions:
REMARK  status: ('A' for Active; 'I' for Inactive)
REMARK    1  A    between atoms: C_7  and  S_8 
ROOT
HETATM    1  S   UNL     1      -7.003  -0.846   0.000  1.00  0.00    -0.070 SA
HETATM    2 CL   UNL     1      -5.717  -0.696   0.000  1.00  0.00    -0.116 Cl
HETATM    3  C   UNL     1      -5.717  -3.294   0.000  1.00  0.00     0.061 A 
HETATM    4  C   UNL     1      -4.967  -4.593   0.000  1.00  0.00     0.046 A 
HETATM    5  C   UNL     1      -4.967  -1.995   0.000  1.00  0.00     0.044 A 
HETATM    6  C   UNL     1      -3.467  -1.995   0.000  1.00  0.00     0.039 A 
HETATM    7  C   UNL     1      -3.467  -4.593   0.000  1.00  0.00     0.007 A 
HETATM    8  C   UNL     1      -2.717  -3.294   0.000  1.00  0.00     0.006 A 
HETATM    9  C   UNL     1      -7.967  -1.995   0.000  1.00  0.00     0.191 A 
HETATM   10  N   UNL     1      -7.217  -3.294   0.000  1.00  0.00    -0.262 NA
ENDROOT
BRANCH   1  11
HETATM   11  C   UNL     1      -7.516   0.564   0.000  1.00  0.00    -0.012 A 
HETATM   12  C   UNL     1      -6.552   1.713   0.000  1.00  0.00     0.034 A 
HETATM   13  C   UNL     1      -7.065   3.122   0.000  1.00  0.00     0.038 A 
HETATM   14  C   UNL     1      -8.542   3.383   0.000  1.00  0.00     0.014 A 
HETATM   15 CL   UNL     1      -9.055   4.792   0.000  1.00  0.00    -0.092 Cl
HETATM   16  C   UNL     1      -9.507   2.234   0.000  1.00  0.00     0.038 A 
HETATM   17  C   UNL     1      -8.993   0.824   0.000  1.00  0.00     0.034 A 
ENDBRANCH   1  11
TORSDOF 1
