REMARK  2 active torsions:
REMARK  status: ('A' for Active; 'I' for Inactive)
REMARK    1  A    between atoms: N_1  and  C_18 
REMARK    2  A    between atoms: N_2  and  C_5 
ROOT
HETATM    1  N   UNL     1       2.873   5.524   0.000  1.00  0.00    -0.325 N 
HETATM    2  N   UNL     1       5.471   7.024   0.000  1.00  0.00    -0.347 N 
HETATM    3  C   UNL     1       4.172   7.774   0.000  1.00  0.00     0.126 A 
HETATM    4  C   UNL     1       2.873   7.024   0.000  1.00  0.00     0.127 A 
HETATM    5  C   UNL     1       5.471   5.524   0.000  1.00  0.00     0.126 A 
HETATM    6  C   UNL     1       4.172   4.774   0.000  1.00  0.00     0.127 A 
ENDROOT
BRANCH   2   7
HETATM    7  C   UNL     1       6.770   7.774   0.000  1.00  0.00     0.040 A 
HETATM    8  C   UNL     1       6.770   9.274   0.000  1.00  0.00     0.044 A 
HETATM    9  C   UNL     1       8.069  10.024   0.000  1.00  0.00     0.007 A 
HETATM   10  C   UNL     1       9.368   9.274   0.000  1.00  0.00     0.006 A 
HETATM   11  C   UNL     1       9.368   7.774   0.000  1.00  0.00     0.039 A 
HETATM   12  C   UNL     1       8.069   7.024   0.000  1.00  0.00     0.047 A 
HETATM   13 CL   UNL     1       8.069   5.524   0.000  1.00  0.00    -0.086 Cl
ENDBRANCH   2   7
BRANCH   1  14
HETATM   14  C   UNL     1       1.574   4.774   0.000  1.00  0.00     0.163 A 
HETATM   15  N   UNL     1       1.574   3.275   0.000  1.00  0.00    -0.249 NA
HETATM   16  C   UNL     1       0.275   2.525   0.000  1.00  0.00     0.129 A 
HETATM   17  C   UNL     1      -1.024   3.275   0.000  1.00  0.00     0.038 A 
HETATM   18  C   UNL     1      -1.024   4.774   0.000  1.00  0.00     0.067 A 
HETATM   19  S   UNL     1       0.275   5.524   0.000  1.00  0.00    -0.078 SA
ENDBRANCH   1  14
TORSDOF 2
