REMARK  4 active torsions:
REMARK  status: ('A' for Active; 'I' for Inactive)
REMARK    1  A    between atoms: N_2  and  C_26 
REMARK    2  A    between atoms: N_3  and  C_7 
REMARK    3  A    between atoms: C_19  and  O_21 
REMARK    4  A    between atoms: C_24  and  C_26 
ROOT
HETATM    1  N   UNL     1       4.922  -5.524   0.000  1.00  0.00    -0.363 N 
HETATM    2  N   UNL     1       7.520  -7.024   0.000  1.00  0.00    -0.351 N 
HETATM    3  C   UNL     1       7.520  -5.524   0.000  1.00  0.00     0.125 A 
HETATM    4  C   UNL     1       6.221  -4.774   0.000  1.00  0.00     0.122 A 
HETATM    5  C   UNL     1       6.221  -7.774   0.000  1.00  0.00     0.125 A 
HETATM    6  C   UNL     1       4.922  -7.024   0.000  1.00  0.00     0.122 A 
ENDROOT
BRANCH   1   7
HETATM    7  C   UNL     1       3.623  -4.774   0.000  1.00  0.00     0.130 C 
BRANCH   7   8
HETATM    8  C   UNL     1       3.623  -3.275   0.000  1.00  0.00     0.173 A 
HETATM    9  C   UNL     1       2.324  -2.525   0.000  1.00  0.00     0.180 A 
HETATM   10  O   UNL     1       2.324  -1.024   0.000  1.00  0.00    -0.331 OA
HETATM   11  C   UNL     1       3.623  -0.275   0.000  1.00  0.00     0.090 A 
HETATM   12  C   UNL     1       4.922  -1.024   0.000  1.00  0.00     0.092 A 
HETATM   13  C   UNL     1       3.623   1.226   0.000  1.00  0.00     0.055 A 
HETATM   14  C   UNL     1       6.221  -0.275   0.000  1.00  0.00     0.082 A 
HETATM   15  O   UNL     1       4.922  -2.525   0.000  1.00  0.00    -0.331 OA
HETATM   16  C   UNL     1       6.221   1.226   0.000  1.00  0.00     0.122 A 
HETATM   17  C   UNL     1       4.922   1.976   0.000  1.00  0.00     0.037 A 
BRANCH  16  18
HETATM   18  O   UNL     1       7.520   1.976   0.000  1.00  0.00    -0.354 OA
HETATM   19  C   UNL     1       8.819   1.226   0.000  1.00  0.00     0.174 C 
ENDBRANCH  16  18
ENDBRANCH   7   8
ENDBRANCH   1   7
BRANCH   2  20
HETATM   20  C   UNL     1       8.819  -7.774   0.000  1.00  0.00     0.011 A 
HETATM   21  C   UNL     1      10.118  -7.024   0.000  1.00  0.00     0.044 A 
HETATM   22  C   UNL     1      11.417  -7.774   0.000  1.00  0.00     0.039 A 
HETATM   23  C   UNL     1      11.417  -9.274   0.000  1.00  0.00     0.014 A 
HETATM   24 CL   UNL     1      12.716 -10.024   0.000  1.00  0.00    -0.092 Cl
HETATM   25  C   UNL     1      10.118 -10.024   0.000  1.00  0.00     0.039 A 
HETATM   26  C   UNL     1       8.819  -9.274   0.000  1.00  0.00     0.044 A 
ENDBRANCH   2  20
TORSDOF 4
