REMARK  3 active torsions:
REMARK  status: ('A' for Active; 'I' for Inactive)
REMARK    1  A    between atoms: C_3  and  C_7 
REMARK    2  A    between atoms: C_7  and  C_8 
REMARK    3  A    between atoms: C_8  and  C_9 
ROOT
HETATM    1  N   UNL     1      -1.024   4.774   0.000  1.00  0.00    -0.296 NA
HETATM    2  C   UNL     1       0.275   5.524   0.000  1.00  0.00     0.120 A 
HETATM    3  C   UNL     1       1.574   4.774   0.000  1.00  0.00     0.025 A 
HETATM    4  C   UNL     1       1.574   3.275   0.000  1.00  0.00     0.004 A 
HETATM    5  C   UNL     1       0.275   2.525   0.000  1.00  0.00     0.026 A 
HETATM    6  C   UNL     1      -1.024   3.275   0.000  1.00  0.00     0.120 A 
ENDROOT
BRANCH   3   7
HETATM    7  C   UNL     1       2.873   5.524   0.000  1.00  0.00     0.013 C 
BRANCH   7   8
HETATM    8  C   UNL     1       4.172   4.774   0.000  1.00  0.00     0.098 C 
BRANCH   8   9
HETATM    9  C   UNL     1       5.471   5.524   0.000  1.00  0.00     0.185 C 
HETATM   10  O   UNL     1       5.471   7.024   0.000  1.00  0.00    -0.647 OA
HETATM   11  O   UNL     1       6.770   4.774   0.000  1.00  0.00    -0.647 OA
ENDBRANCH   8   9
ENDBRANCH   7   8
ENDBRANCH   3   7
TORSDOF 3
