REMARK  3 active torsions:
REMARK  status: ('A' for Active; 'I' for Inactive)
REMARK    1  A    between atoms: C_3  and  O_14 
REMARK    2  A    between atoms: C_5  and  O_7 
REMARK    3  A    between atoms: C_6  and  S_10 
ROOT
HETATM    1  C   UNL     1      -0.387   8.330   0.000  1.00  0.00     0.073 A 
HETATM    2  C   UNL     1      -1.686   7.580   0.000  1.00  0.00     0.094 A 
HETATM    3  C   UNL     1       0.912   7.580   0.000  1.00  0.00     0.086 A 
HETATM    4  C   UNL     1       0.912   6.080   0.000  1.00  0.00     0.093 A 
HETATM    5  C   UNL     1      -1.686   6.080   0.000  1.00  0.00     0.086 A 
HETATM    6  C   UNL     1      -0.387   5.330   0.000  1.00  0.00     0.109 A 
HETATM    7  N   UNL     1      -0.387   9.830   0.000  1.00  0.00    -0.103 NA
ENDROOT
BRANCH   6   8
HETATM    8  S   UNL     1      -0.387   3.830   0.000  1.00  0.00     0.301 S 
HETATM    9  O   UNL     1      -1.887   3.830   0.000  1.00  0.00    -0.197 OA
HETATM   10  O   UNL     1      -0.387   2.330   0.000  1.00  0.00    -0.197 OA
HETATM   11  N   UNL     1       1.113   3.830   0.000  1.00  0.00    -0.043 N 
ENDBRANCH   6   8
BRANCH   5  12
HETATM   12  O   UNL     1      -2.985   5.330   0.000  1.00  0.00    -0.332 OA
HETATM   13  C   UNL     1      -4.284   6.080   0.000  1.00  0.00     0.181 C 
ENDBRANCH   5  12
BRANCH   3  14
HETATM   14  O   UNL     1       2.211   8.330   0.000  1.00  0.00    -0.331 OA
HETATM   15  C   UNL     1       3.510   7.580   0.000  1.00  0.00     0.181 C 
ENDBRANCH   3  14
TORSDOF 3
