REMARK  4 active torsions:
REMARK  status: ('A' for Active; 'I' for Inactive)
REMARK    1  A    between atoms: C_3  and  C_17 
REMARK    2  A    between atoms: C_4  and  O_18 
REMARK    3  A    between atoms: C_9  and  C_15 
REMARK    4  A    between atoms: C_15  and  C_17 
ROOT
HETATM    1  C   UNL     1       7.520  -0.475   0.000  1.00  0.00     0.106 C 
HETATM    2  O   UNL     1       8.819   0.275   0.000  1.00  0.00    -0.195 OA
ENDROOT
BRANCH   1   3
HETATM    3  C   UNL     1       6.221   0.275   0.000  1.00  0.00     0.020 A 
HETATM    4  C   UNL     1       6.221   1.774   0.000  1.00  0.00     0.033 A 
HETATM    5  C   UNL     1       4.922   2.525   0.000  1.00  0.00     0.038 A 
HETATM    6  C   UNL     1       3.623   1.774   0.000  1.00  0.00     0.159 A 
HETATM    7  C   UNL     1       3.623   0.275   0.000  1.00  0.00     0.087 A 
HETATM    8  O   UNL     1       2.324   2.525   0.000  1.00  0.00    -0.223 OA
HETATM    9  C   UNL     1       4.922  -0.475   0.000  1.00  0.00     0.109 A 
HETATM   10  O   UNL     1       4.922  -1.976   0.000  1.00  0.00    -0.195 OA
ENDBRANCH   1   3
BRANCH   1  11
HETATM   11  C   UNL     1       7.520  -1.976   0.000  1.00  0.00     0.054 C 
BRANCH  11  12
HETATM   12  C   UNL     1       8.819  -2.725   0.000  1.00  0.00     0.007 A 
HETATM   13  C   UNL     1      10.118  -1.976   0.000  1.00  0.00     0.003 A 
HETATM   14  C   UNL     1      11.417  -2.725   0.000  1.00  0.00     0.030 A 
HETATM   15  C   UNL     1      11.417  -4.226   0.000  1.00  0.00     0.116 A 
HETATM   16  C   UNL     1      10.118  -4.976   0.000  1.00  0.00     0.030 A 
HETATM   17  C   UNL     1       8.819  -4.226   0.000  1.00  0.00     0.003 A 
BRANCH  15  18
HETATM   18  O   UNL     1      12.716  -4.976   0.000  1.00  0.00    -0.354 OA
HETATM   19  C   UNL     1      14.015  -4.226   0.000  1.00  0.00     0.174 C 
ENDBRANCH  15  18
ENDBRANCH  11  12
ENDBRANCH   1  11
TORSDOF 4
