REMARK  5 active torsions:
REMARK  status: ('A' for Active; 'I' for Inactive)
REMARK    1  A    between atoms: C_9  and  C_27 
REMARK    2  A    between atoms: C_16  and  C_23 
REMARK    3  A    between atoms: C_18  and  C_21 
REMARK    4  A    between atoms: C_18  and  C_22 
REMARK    5  A    between atoms: C_22  and  C_23 
ROOT
HETATM    1  C   UNL     1       1.252  -1.837   0.000  1.00  0.00    -0.013 A 
HETATM    2  C   UNL     1      -0.177  -1.383   0.000  1.00  0.00     0.027 A 
HETATM    3  C   UNL     1       1.573  -3.303   0.000  1.00  0.00     0.050 A 
HETATM    4  C   UNL     1       0.465  -4.313   0.000  1.00  0.00     0.045 A 
HETATM    5  C   UNL     1      -1.286  -2.393   0.000  1.00  0.00     0.005 A 
HETATM    6  C   UNL     1      -0.965  -3.858   0.000  1.00  0.00     0.007 A 
HETATM    7  N   UNL     1       3.002  -3.758   0.000  1.00  0.00    -0.275 NA
HETATM    8  C   UNL     1       4.111  -2.747   0.000  1.00  0.00     0.130 A 
HETATM    9  C   UNL     1       3.790  -1.282   0.000  1.00  0.00     0.052 A 
HETATM   10  C   UNL     1       2.361  -0.827   0.000  1.00  0.00    -0.018 A 
ENDROOT
BRANCH  10  11
HETATM   11  C   UNL     1       2.299   0.672   0.000  1.00  0.00     0.051 A 
HETATM   12  C   UNL     1       3.567   1.474   0.000  1.00  0.00     0.039 A 
HETATM   13  N   UNL     1       3.505   2.973   0.000  1.00  0.00    -0.331 N 
HETATM   14  C   UNL     1       4.895   0.778   0.000  1.00  0.00     0.050 C 
HETATM   15  H   UNL     1       4.772   3.776   0.000  1.00  0.00     0.168 HD
HETATM   16  C   UNL     1       2.176   3.669   0.000  1.00  0.00     0.217 A 
HETATM   17  N   UNL     1       0.909   2.866   0.000  1.00  0.00    -0.190 NA
HETATM   18  N   UNL     1       2.115   5.168   0.000  1.00  0.00    -0.061 NA
HETATM   19  C   UNL     1       0.971   1.368   0.000  1.00  0.00     0.216 A 
HETATM   20  O   UNL     1      -0.297   0.565   0.000  1.00  0.00    -0.169 OA
ENDBRANCH  10  11
BRANCH   5  21
HETATM   21  C   UNL     1      -2.715  -1.938   0.000  1.00  0.00     0.005 C 
BRANCH  21  22
HETATM   22  C   UNL     1      -2.777  -0.440   0.000  1.00  0.00     0.058 C 
BRANCH  22  23
HETATM   23  C   UNL     1      -4.105   0.256   0.000  1.00  0.00     0.203 A 
HETATM   24  O   UNL     1      -5.550   0.661   0.000  1.00  0.00    -0.331 OA
HETATM   25  C   UNL     1      -5.611   2.160   0.000  1.00  0.00     0.177 A 
HETATM   26  C   UNL     1      -4.205   2.682   0.000  1.00  0.00     0.177 A 
HETATM   27  O   UNL     1      -3.274   1.505   0.000  1.00  0.00    -0.331 OA
BRANCH  23  28
HETATM   28  C   UNL     1      -4.659  -1.138   0.000  1.00  0.00     0.151 C 
HETATM   29 CL   UNL     1      -6.143  -1.356   0.000  1.00  0.00    -0.108 Cl
ENDBRANCH  23  28
ENDBRANCH  22  23
ENDBRANCH  21  22
ENDBRANCH   5  21
TORSDOF 5
