REMARK  2 active torsions:
REMARK  status: ('A' for Active; 'I' for Inactive)
REMARK    1  A    between atoms: N_1  and  C_8 
REMARK    2  A    between atoms: N_2  and  C_16 
ROOT
HETATM    1  N   UNL     1       1.379  -5.637   0.000  1.00  0.00    -0.287 N 
HETATM    2  N   UNL     1      -0.375  -8.675   0.000  1.00  0.00    -0.287 N 
HETATM    3  C   UNL     1       3.977  -5.637   0.000  1.00  0.00     0.040 A 
HETATM    4  C   UNL     1       5.276  -6.387   0.000  1.00  0.00     0.006 A 
HETATM    5  C   UNL     1       2.678  -6.387   0.000  1.00  0.00     0.021 A 
HETATM    6  C   UNL     1       5.276  -7.887   0.000  1.00  0.00     0.001 A 
HETATM    7  C   UNL     1       2.678  -7.887   0.000  1.00  0.00     0.035 A 
HETATM    8  C   UNL     1       3.977  -8.637   0.000  1.00  0.00     0.010 A 
HETATM    9  C   UNL     1      -0.375  -6.649   0.000  1.00  0.00     0.269 A 
HETATM   10  O   UNL     1      -1.674  -5.899   0.000  1.00  0.00    -0.150 OA
HETATM   11  C   UNL     1       0.924  -9.425   0.000  1.00  0.00     0.021 A 
HETATM   12  C   UNL     1       0.924 -10.925   0.000  1.00  0.00     0.040 A 
HETATM   13  C   UNL     1       2.223 -11.675   0.000  1.00  0.00     0.006 A 
HETATM   14  C   UNL     1       3.522 -10.925   0.000  1.00  0.00     0.001 A 
HETATM   15  C   UNL     1       3.522  -9.425   0.000  1.00  0.00     0.010 A 
HETATM   16  C   UNL     1       2.223  -8.675   0.000  1.00  0.00     0.035 A 
ENDROOT
BRANCH   1  17
HETATM   17  C   UNL     1       1.379  -4.137   0.000  1.00  0.00     0.022 A 
HETATM   18  C   UNL     1       2.678  -3.387   0.000  1.00  0.00     0.040 A 
HETATM   19  C   UNL     1       2.678  -1.887   0.000  1.00  0.00     0.006 A 
HETATM   20  C   UNL     1       1.379  -1.137   0.000  1.00  0.00     0.001 A 
HETATM   21  C   UNL     1       0.080  -1.887   0.000  1.00  0.00     0.006 A 
HETATM   22  C   UNL     1       0.080  -3.387   0.000  1.00  0.00     0.040 A 
ENDBRANCH   1  17
BRANCH   2  23
HETATM   23  C   UNL     1      -1.674  -9.425   0.000  1.00  0.00     0.022 A 
HETATM   24  C   UNL     1      -2.973  -8.675   0.000  1.00  0.00     0.040 A 
HETATM   25  C   UNL     1      -4.272  -9.425   0.000  1.00  0.00     0.006 A 
HETATM   26  C   UNL     1      -4.272 -10.925   0.000  1.00  0.00     0.001 A 
HETATM   27  C   UNL     1      -2.973 -11.675   0.000  1.00  0.00     0.006 A 
HETATM   28  C   UNL     1      -1.674 -10.925   0.000  1.00  0.00     0.040 A 
ENDBRANCH   2  23
TORSDOF 2
