REMARK  0 active torsions:
REMARK  status: ('A' for Active; 'I' for Inactive)
ROOT
HETATM    1  O   UNL     1       5.946   0.750   0.000  1.00  0.00    -0.315 OA
HETATM    2  O   UNL     1      11.142   0.750   0.000  1.00  0.00    -0.192 OA
HETATM    3  C   UNL     1       5.946   8.250   0.000  1.00  0.00     0.007 A 
HETATM    4  C   UNL     1       7.245   7.500   0.000  1.00  0.00     0.051 A 
HETATM    5  C   UNL     1       4.647   7.500   0.000  1.00  0.00     0.005 A 
HETATM    6  C   UNL     1       7.245   6.000   0.000  1.00  0.00     0.074 A 
HETATM    7  C   UNL     1       4.647   6.000   0.000  1.00  0.00     0.028 A 
HETATM    8  C   UNL     1       5.946   5.250   0.000  1.00  0.00    -0.004 A 
HETATM    9  C   UNL     1       5.946   3.750   0.000  1.00  0.00    -0.001 A 
HETATM   10  C   UNL     1       7.245   3.000   0.000  1.00  0.00     0.043 A 
HETATM   11  C   UNL     1       8.544   3.750   0.000  1.00  0.00     0.128 A 
HETATM   12  C   UNL     1       9.843   3.000   0.000  1.00  0.00     0.175 A 
HETATM   13  C   UNL     1       4.647   3.000   0.000  1.00  0.00     0.003 A 
HETATM   14  C   UNL     1       3.348   3.750   0.000  1.00  0.00     0.084 A 
HETATM   15  C   UNL     1       2.049   3.000   0.000  1.00  0.00     0.134 A 
HETATM   16  C   UNL     1       9.843   1.500   0.000  1.00  0.00     0.142 A 
HETATM   17  C   UNL     1       7.245   1.500   0.000  1.00  0.00     0.086 A 
HETATM   18  C   UNL     1       4.647   1.500   0.000  1.00  0.00     0.080 A 
HETATM   19  C   UNL     1       2.049   1.500   0.000  1.00  0.00     0.136 A 
HETATM   20  C   UNL     1       8.544   0.750   0.000  1.00  0.00     0.108 A 
HETATM   21  C   UNL     1       3.348   0.750   0.000  1.00  0.00     0.107 A 
HETATM   22  O   UNL     1       0.750   3.750   0.000  1.00  0.00    -0.193 OA
HETATM   23  O   UNL     1       0.750   0.750   0.000  1.00  0.00    -0.193 OA
HETATM   24  O   UNL     1       8.544   5.250   0.000  1.00  0.00    -0.309 OA
HETATM   25  O   UNL     1      11.142   3.750   0.000  1.00  0.00    -0.186 OA
ENDROOT
TORSDOF 0
