REMARK  4 active torsions:
REMARK  status: ('A' for Active; 'I' for Inactive)
REMARK    1  A    between atoms: C_3  and  C_7 
REMARK    2  A    between atoms: C_4  and  C_13 
REMARK    3  A    between atoms: C_5  and  C_11 
REMARK    4  A    between atoms: C_6  and  C_10 
ROOT
HETATM    1  O   UNL     1      -5.200   0.901   0.000  1.00  0.00    -0.191 OA
HETATM    2  C   UNL     1      -5.200  -0.599   0.000  1.00  0.00     0.127 A 
HETATM    3  C   UNL     1      -6.414  -1.481   0.000  1.00  0.00     0.034 A 
HETATM    4  C   UNL     1      -3.986  -1.481   0.000  1.00  0.00     0.034 A 
HETATM    5  C   UNL     1      -4.450  -2.907   0.000  1.00  0.00     0.009 A 
HETATM    6  C   UNL     1      -5.950  -2.907   0.000  1.00  0.00     0.009 A 
ENDROOT
BRANCH   3   7
HETATM    7  C   UNL     1      -7.840  -1.017   0.000  1.00  0.00     0.211 C 
HETATM    8  O   UNL     1      -8.955  -2.021   0.000  1.00  0.00    -0.215 OA
ENDBRANCH   3   7
BRANCH   6   9
HETATM    9  C   UNL     1      -6.832  -4.121   0.000  1.00  0.00     0.208 C 
HETATM   10  O   UNL     1      -8.323  -3.964   0.000  1.00  0.00    -0.215 OA
ENDBRANCH   6   9
BRANCH   4  11
HETATM   11  C   UNL     1      -2.560  -1.017   0.000  1.00  0.00     0.211 C 
HETATM   12  O   UNL     1      -1.445  -2.021   0.000  1.00  0.00    -0.215 OA
ENDBRANCH   4  11
BRANCH   5  13
HETATM   13  C   UNL     1      -3.568  -4.121   0.000  1.00  0.00     0.208 C 
HETATM   14  O   UNL     1      -2.077  -3.964   0.000  1.00  0.00    -0.215 OA
ENDBRANCH   5  13
TORSDOF 4
