REMARK  3 active torsions:
REMARK  status: ('A' for Active; 'I' for Inactive)
REMARK    1  A    between atoms: C_14  and  N_19 
REMARK    2  A    between atoms: N_19  and  C_20 
REMARK    3  A    between atoms: N_19  and  C_22 
ROOT
HETATM    1  S   UNL     1      -4.272 -13.399   0.000  1.00  0.00    -0.040 SA
HETATM    2  H   UNL     1      -4.272 -10.399   0.000  1.00  0.00     0.170 HD
HETATM    3  N   UNL     1      -2.973 -11.149   0.000  1.00  0.00    -0.311 N 
HETATM    4  N   UNL     1      -1.674 -13.399   0.000  1.00  0.00    -0.313 N 
HETATM    5  O   UNL     1      -1.674  -8.899   0.000  1.00  0.00    -0.171 OA
HETATM    6  H   UNL     1      -1.674 -14.899   0.000  1.00  0.00     0.170 HD
HETATM    7  O   UNL     1       0.924 -13.399   0.000  1.00  0.00    -0.296 OA
HETATM    8  C   UNL     1      -1.674 -10.399   0.000  1.00  0.00     0.192 A 
HETATM    9  C   UNL     1      -0.375 -11.149   0.000  1.00  0.00     0.063 A 
HETATM   10  C   UNL     1      -0.375 -12.649   0.000  1.00  0.00     0.162 A 
HETATM   11  C   UNL     1       3.522 -10.399   0.000  1.00  0.00     0.030 A 
HETATM   12  C   UNL     1       2.223 -11.149   0.000  1.00  0.00    -0.020 A 
HETATM   13  C   UNL     1       4.821 -11.149   0.000  1.00  0.00     0.044 A 
HETATM   14  C   UNL     1       4.821 -12.649   0.000  1.00  0.00     0.017 A 
HETATM   15  C   UNL     1       2.223 -12.649   0.000  1.00  0.00     0.077 A 
HETATM   16  C   UNL     1       3.522 -13.399   0.000  1.00  0.00     0.090 A 
HETATM   17  C   UNL     1      -2.973 -12.649   0.000  1.00  0.00     0.179 A 
HETATM   18  C   UNL     1       0.924 -10.399   0.000  1.00  0.00     0.057 A 
ENDROOT
BRANCH  14  19
HETATM   19  N   UNL     1       6.120 -13.399   0.000  1.00  0.00    -0.354 N 
BRANCH  19  20
HETATM   20  C   UNL     1       7.419 -12.649   0.000  1.00  0.00     0.101 C 
HETATM   21  C   UNL     1       8.718 -13.399   0.000  1.00  0.00     0.026 C 
ENDBRANCH  19  20
BRANCH  19  22
HETATM   22  C   UNL     1       6.120 -14.899   0.000  1.00  0.00     0.101 C 
HETATM   23  C   UNL     1       7.419 -15.649   0.000  1.00  0.00     0.026 C 
ENDBRANCH  19  22
ENDBRANCH  14  19
TORSDOF 3
