REMARK  6 active torsions:
REMARK  status: ('A' for Active; 'I' for Inactive)
REMARK    1  A    between atoms: N_1  and  C_28 
REMARK    2  A    between atoms: N_2  and  C_16 
REMARK    3  A    between atoms: C_12  and  O_24 
REMARK    4  A    between atoms: O_24  and  C_25 
REMARK    5  A    between atoms: C_25  and  C_26 
REMARK    6  A    between atoms: C_26  and  C_28 
ROOT
HETATM    1  C   UNL     1      -8.069  -7.024   0.000  1.00  0.00     0.204 C 
HETATM    2  O   UNL     1      -8.069  -5.524   0.000  1.00  0.00    -0.219 OA
ENDROOT
BRANCH   1   3
HETATM    3  C   UNL     1      -9.368  -7.774   0.000  1.00  0.00     0.183 C 
BRANCH   3   4
HETATM    4  O   UNL     1      -9.368  -9.274   0.000  1.00  0.00    -0.333 OA
BRANCH   4   5
HETATM    5  C   UNL     1     -10.667 -10.025   0.000  1.00  0.00     0.067 A 
HETATM    6  C   UNL     1     -11.966  -9.275   0.000  1.00  0.00     0.051 A 
HETATM    7  C   UNL     1     -13.265 -10.025   0.000  1.00  0.00     0.011 A 
HETATM    8  C   UNL     1     -13.265 -11.525   0.000  1.00  0.00     0.022 A 
HETATM    9  C   UNL     1     -11.966 -12.275   0.000  1.00  0.00    -0.047 A 
HETATM   10  C   UNL     1     -10.667 -11.525   0.000  1.00  0.00    -0.012 A 
HETATM   11  C   UNL     1     -11.966 -13.775   0.000  1.00  0.00     0.022 A 
HETATM   12  C   UNL     1      -9.368 -12.275   0.000  1.00  0.00     0.027 A 
HETATM   13  C   UNL     1      -9.368 -13.774   0.000  1.00  0.00     0.005 A 
HETATM   14  C   UNL     1     -10.667 -14.525   0.000  1.00  0.00     0.005 A 
ENDBRANCH   4   5
ENDBRANCH   3   4
ENDBRANCH   1   3
BRANCH   1  15
HETATM   15  C   UNL     1      -6.770  -7.774   0.000  1.00  0.00     0.133 C 
BRANCH  15  16
HETATM   16  N   UNL     1      -5.471  -7.024   0.000  1.00  0.00    -0.363 N 
HETATM   17  C   UNL     1      -5.471  -5.524   0.000  1.00  0.00     0.122 A 
HETATM   18  C   UNL     1      -4.172  -4.774   0.000  1.00  0.00     0.125 A 
HETATM   19  N   UNL     1      -2.873  -5.524   0.000  1.00  0.00    -0.347 N 
HETATM   20  C   UNL     1      -2.873  -7.024   0.000  1.00  0.00     0.125 A 
HETATM   21  C   UNL     1      -4.172  -7.774   0.000  1.00  0.00     0.122 A 
BRANCH  19  22
HETATM   22  C   UNL     1      -1.573  -4.774   0.000  1.00  0.00     0.040 A 
HETATM   23  C   UNL     1      -1.573  -3.275   0.000  1.00  0.00     0.044 A 
HETATM   24  C   UNL     1      -0.275  -2.525   0.000  1.00  0.00     0.007 A 
HETATM   25  C   UNL     1       1.024  -3.275   0.000  1.00  0.00     0.006 A 
HETATM   26  C   UNL     1       1.024  -4.774   0.000  1.00  0.00     0.039 A 
HETATM   27  C   UNL     1      -0.275  -5.524   0.000  1.00  0.00     0.047 A 
HETATM   28 CL   UNL     1      -0.275  -7.024   0.000  1.00  0.00    -0.086 Cl
ENDBRANCH  19  22
ENDBRANCH  15  16
ENDBRANCH   1  15
TORSDOF 6
