REMARK  1 active torsions:
REMARK  status: ('A' for Active; 'I' for Inactive)
REMARK    1  A    between atoms: O_12  and  C_13 
ROOT
HETATM    1  N   UNL     1       1.674   1.399   0.000  1.00  0.00    -0.175 NA
HETATM    2  N   UNL     1       2.973   2.150   0.000  1.00  0.00    -0.157 NA
HETATM    3  C   UNL     1       4.272   1.399   0.000  1.00  0.00     0.083 A 
HETATM    4  C   UNL     1       4.272  -0.101   0.000  1.00  0.00    -0.007 A 
HETATM    5  C   UNL     1       2.973  -0.851   0.000  1.00  0.00     0.056 A 
HETATM    6  C   UNL     1       1.674  -0.101   0.000  1.00  0.00     0.154 A 
HETATM    7  C   UNL     1       5.571   2.150   0.000  1.00  0.00     0.104 A 
HETATM    8  C   UNL     1       6.870   1.399   0.000  1.00  0.00     0.142 A 
HETATM    9  O   UNL     1       8.169   2.150   0.000  1.00  0.00    -0.192 OA
HETATM   10  C   UNL     1       6.870  -0.101   0.000  1.00  0.00     0.179 A 
HETATM   11  O   UNL     1       8.169  -0.851   0.000  1.00  0.00    -0.186 OA
HETATM   12  O   UNL     1       5.571  -0.851   0.000  1.00  0.00     0.000 OA
ENDROOT
BRANCH  12  13
HETATM   13  C   UNL     1       5.571  -2.350   0.000  1.00  0.00     0.000 C 
HETATM   14  C   UNL     1       6.870  -3.100   0.000  1.00  0.00     0.000 C 
ENDBRANCH  12  13
TORSDOF 1
