REMARK  3 active torsions:
REMARK  status: ('A' for Active; 'I' for Inactive)
REMARK    1  A    between atoms: C_6  and  C_15 
REMARK    2  A    between atoms: C_9  and  C_13 
REMARK    3  A    between atoms: C_13  and  C_15 
ROOT
HETATM    1  C   UNL     1      -4.172  -4.774   0.000  1.00  0.00     0.150 C 
HETATM    2  O   UNL     1      -4.172  -3.275   0.000  1.00  0.00    -0.189 OA
ENDROOT
BRANCH   1   3
HETATM    3  C   UNL     1      -5.471  -5.524   0.000  1.00  0.00     0.007 A 
HETATM    4  C   UNL     1      -6.770  -4.774   0.000  1.00  0.00     0.144 A 
HETATM    5  N   UNL     1      -8.069  -5.524   0.000  1.00  0.00    -0.291 NA
HETATM    6  C   UNL     1      -8.069  -7.024   0.000  1.00  0.00     0.121 A 
HETATM    7  C   UNL     1      -6.770  -7.774   0.000  1.00  0.00     0.030 A 
HETATM    8  C   UNL     1      -5.471  -7.024   0.000  1.00  0.00     0.028 A 
ENDBRANCH   1   3
BRANCH   1   9
HETATM    9  C   UNL     1      -2.873  -5.524   0.000  1.00  0.00     0.150 C 
HETATM   10  O   UNL     1      -2.873  -7.024   0.000  1.00  0.00    -0.189 OA
BRANCH   9  11
HETATM   11  C   UNL     1      -1.574  -4.774   0.000  1.00  0.00     0.007 A 
HETATM   12  C   UNL     1      -0.275  -5.524   0.000  1.00  0.00     0.028 A 
HETATM   13  C   UNL     1       1.024  -4.774   0.000  1.00  0.00     0.030 A 
HETATM   14  C   UNL     1       1.024  -3.275   0.000  1.00  0.00     0.121 A 
HETATM   15  N   UNL     1      -0.275  -2.525   0.000  1.00  0.00    -0.291 NA
HETATM   16  C   UNL     1      -1.574  -3.275   0.000  1.00  0.00     0.144 A 
ENDBRANCH   9  11
ENDBRANCH   1   9
TORSDOF 3
