REMARK  1 active torsions:
REMARK  status: ('A' for Active; 'I' for Inactive)
REMARK    1  A    between atoms: C_7  and  C_28 
ROOT
HETATM    1  C   UNL     1      -2.052   2.362   0.000  1.00  0.00     0.021 A 
HETATM    2  C   UNL     1      -0.643   2.875   0.000  1.00  0.00    -0.037 A 
HETATM    3  C   UNL     1      -2.313   0.885   0.000  1.00  0.00     0.151 A 
HETATM    4  C   UNL     1      -1.164  -0.079   0.000  1.00  0.00     0.134 A 
HETATM    5  C   UNL     1       0.506   1.911   0.000  1.00  0.00     0.029 A 
HETATM    6  C   UNL     1       0.246   0.434   0.000  1.00  0.00     0.061 A 
HETATM    7  C   UNL     1      -3.830   7.245   0.000  1.00  0.00     0.202 A 
HETATM    8  C   UNL     1      -5.330   7.245   0.000  1.00  0.00     0.094 A 
HETATM    9  C   UNL     1      -6.080   5.946   0.000  1.00  0.00     0.081 A 
HETATM   10  C   UNL     1      -3.080   5.946   0.000  1.00  0.00     0.013 A 
HETATM   11  C   UNL     1      -5.330   4.647   0.000  1.00  0.00     0.020 A 
HETATM   12  C   UNL     1      -3.830   4.647   0.000  1.00  0.00     0.000 A 
HETATM   13  C   UNL     1      -9.830   2.049   0.000  1.00  0.00     0.079 A 
HETATM   14  C   UNL     1      -8.330   2.049   0.000  1.00  0.00    -0.035 A 
HETATM   15  C   UNL     1     -10.580   3.348   0.000  1.00  0.00     0.140 A 
HETATM   16  C   UNL     1      -7.580   3.348   0.000  1.00  0.00     0.019 A 
HETATM   17  C   UNL     1      -9.830   4.647   0.000  1.00  0.00     0.175 A 
HETATM   18  C   UNL     1      -8.330   4.647   0.000  1.00  0.00     0.126 A 
HETATM   19  O   UNL     1     -12.080   3.348   0.000  1.00  0.00    -0.192 OA
HETATM   20  O   UNL     1     -10.580   5.946   0.000  1.00  0.00    -0.186 OA
HETATM   21  C   UNL     1      -7.580   0.750   0.000  1.00  0.00     0.029 A 
HETATM   22  C   UNL     1      -6.080   0.750   0.000  1.00  0.00     0.060 A 
HETATM   23  C   UNL     1      -5.330   2.049   0.000  1.00  0.00     0.130 A 
HETATM   24  O   UNL     1      -3.830   2.049   0.000  1.00  0.00    -0.193 OA
HETATM   25  O   UNL     1      -6.080   3.348   0.000  1.00  0.00     0.000 OA
HETATM   26  O   UNL     1      -7.580   5.946   0.000  1.00  0.00    -0.309 OA
HETATM   27  O   UNL     1      -3.080   3.348   0.000  1.00  0.00     0.000 OA
HETATM   28  O   UNL     1      -2.420   7.758   0.000  1.00  0.00    -0.299 OA
HETATM   29  C   UNL     1      -1.271   6.794   0.000  1.00  0.00     0.225 A 
HETATM   30  O   UNL     1       0.139   7.307   0.000  1.00  0.00    -0.164 OA
HETATM   31  C   UNL     1      -1.531   5.317   0.000  1.00  0.00     0.029 A 
HETATM   32  C   UNL     1      -0.382   4.353   0.000  1.00  0.00     0.052 A 
HETATM   33  O   UNL     1      -3.722   0.372   0.000  1.00  0.00    -0.188 OA
HETATM   34  O   UNL     1      -1.424  -1.556   0.000  1.00  0.00    -0.193 OA
ENDROOT
BRANCH   7  35
HETATM   35  C   UNL     1      -4.090   8.722   0.000  1.00  0.00     0.216 C 
HETATM   36  O   UNL     1      -2.941   9.687   0.000  1.00  0.00    -0.645 OA
HETATM   37  O   UNL     1      -5.500   9.235   0.000  1.00  0.00    -0.645 OA
ENDBRANCH   7  35
TORSDOF 1
