REMARK  1 active torsions:
REMARK  status: ('A' for Active; 'I' for Inactive)
REMARK    1  A    between atoms: C_4  and  N_12 
ROOT
HETATM    1  F   UNL     1      -5.571  -3.650   0.000  1.00  0.00    -0.209 F 
HETATM    2  N   UNL     1      -2.973   0.851   0.000  1.00  0.00    -0.269 NA
HETATM    3  C   UNL     1      -5.571   0.851   0.000  1.00  0.00     0.166 A 
HETATM    4  C   UNL     1      -6.870   0.101   0.000  1.00  0.00     0.138 A 
HETATM    5  C   UNL     1      -4.272   0.101   0.000  1.00  0.00     0.101 A 
HETATM    6  C   UNL     1      -4.272  -1.399   0.000  1.00  0.00     0.021 A 
HETATM    7  C   UNL     1      -6.870  -1.399   0.000  1.00  0.00     0.109 A 
HETATM    8  C   UNL     1      -5.571  -2.150   0.000  1.00  0.00     0.121 A 
HETATM    9  C   UNL     1      -2.973  -2.150   0.000  1.00  0.00     0.032 A 
HETATM   10  C   UNL     1      -1.674   0.101   0.000  1.00  0.00     0.126 A 
HETATM   11  C   UNL     1      -1.674  -1.399   0.000  1.00  0.00     0.031 A 
HETATM   12  O   UNL     1      -5.571   2.350   0.000  1.00  0.00    -0.187 OA
ENDROOT
BRANCH   4  13
HETATM   13  N   UNL     1      -8.169   0.851   0.000  1.00  0.00    -0.115 N 
HETATM   14  O   UNL     1      -9.468   0.101   0.000  1.00  0.00    -0.532 OA
HETATM   15  O   UNL     1      -8.169   2.350   0.000  1.00  0.00    -0.532 OA
ENDBRANCH   4  13
TORSDOF 1
