REMARK  0 active torsions:
REMARK  status: ('A' for Active; 'I' for Inactive)
ROOT
HETATM    1  O   UNL     1      -7.389  -6.921   0.000  1.00  0.00    -0.171 OA
HETATM    2  N   UNL     1      -4.992  -2.711   0.000  1.00  0.00    -0.232 NA
HETATM    3  N   UNL     1      -4.992  -6.082   0.000  1.00  0.00    -0.332 N 
HETATM    4  H   UNL     1      -4.658  -7.544   0.000  1.00  0.00     0.168 HD
HETATM    5  N   UNL     1      -2.520  -2.896   0.000  1.00  0.00    -0.338 N 
HETATM    6  H   UNL     1      -2.520  -1.396   0.000  1.00  0.00     0.164 HD
HETATM    7  N   UNL     1      -1.221  -5.146   0.000  1.00  0.00    -0.266 NA
HETATM    8  C   UNL     1      -6.454  -3.045   0.000  1.00  0.00     0.065 A 
HETATM    9  C   UNL     1      -7.105  -4.396   0.000  1.00  0.00     0.060 A 
HETATM   10  C   UNL     1      -6.454  -5.748   0.000  1.00  0.00     0.192 A 
HETATM   11  C   UNL     1      -1.221  -3.646   0.000  1.00  0.00     0.224 A 
HETATM   12  C   UNL     1      -3.819  -3.647   0.000  1.00  0.00     0.151 A 
HETATM   13  C   UNL     1      -3.819  -5.146   0.000  1.00  0.00     0.094 A 
HETATM   14  C   UNL     1      -2.520  -5.896   0.000  1.00  0.00     0.168 A 
HETATM   15  C   UNL     1      -7.389  -1.872   0.000  1.00  0.00     0.052 C 
ENDROOT
TORSDOF 0
