REMARK  2 active torsions:
REMARK  status: ('A' for Active; 'I' for Inactive)
REMARK    1  A    between atoms: N_2  and  C_12 
REMARK    2  A    between atoms: C_7  and  O_14 
ROOT
HETATM    1  N   UNL     1       4.272  -0.101   0.000  1.00  0.00    -0.185 NA
HETATM    2  N   UNL     1       6.870  -0.101   0.000  1.00  0.00    -0.276 N 
HETATM    3  O   UNL     1       5.571  -2.350   0.000  1.00  0.00    -0.149 OA
HETATM    4  C   UNL     1       6.870   1.399   0.000  1.00  0.00     0.120 A 
HETATM    5  C   UNL     1       5.571   2.150   0.000  1.00  0.00     0.096 A 
HETATM    6  C   UNL     1       4.272   1.399   0.000  1.00  0.00     0.159 A 
HETATM    7  C   UNL     1       5.571  -0.851   0.000  1.00  0.00     0.284 A 
ENDROOT
BRANCH   2   8
HETATM    8  C   UNL     1       8.169  -0.851   0.000  1.00  0.00     0.137 A 
HETATM    9  O   UNL     1       9.468  -0.101   0.000  1.00  0.00    -0.319 OA
HETATM   10  C   UNL     1      10.767  -0.851   0.000  1.00  0.00     0.150 A 
HETATM   11  C   UNL     1      10.767  -2.350   0.000  1.00  0.00     0.033 A 
HETATM   12  C   UNL     1       9.468  -3.100   0.000  1.00  0.00     0.011 A 
HETATM   13  C   UNL     1       8.169  -2.350   0.000  1.00  0.00     0.070 A 
ENDBRANCH   2   8
BRANCH   6  14
HETATM   14  O   UNL     1       2.973   2.150   0.000  1.00  0.00    -0.315 OA
HETATM   15  C   UNL     1       2.973   3.650   0.000  1.00  0.00     0.183 C 
ENDBRANCH   6  14
TORSDOF 2
