REMARK  1 active torsions:
REMARK  status: ('A' for Active; 'I' for Inactive)
REMARK    1  A    between atoms: N_2  and  N_10 
ROOT
HETATM    1  S   UNL     1       3.818  -3.979   0.000  1.00  0.00    -0.063 SA
HETATM    2  N   UNL     1       5.449  -0.457   0.000  1.00  0.00    -0.231 N 
HETATM    3  N   UNL     1       6.199  -2.765   0.000  1.00  0.00    -0.353 N 
HETATM    4  H   UNL     1       7.081  -3.979   0.000  1.00  0.00     0.163 HD
HETATM    5  C   UNL     1       6.663  -1.339   0.000  1.00  0.00     0.147 A 
HETATM    6  C   UNL     1       4.236  -1.339   0.000  1.00  0.00     0.128 A 
HETATM    7  C   UNL     1       4.699  -2.765   0.000  1.00  0.00     0.107 A 
HETATM    8  C   UNL     1       2.866  -1.949   0.000  1.00  0.00     0.031 C 
HETATM    9  C   UNL     1       3.486  -0.040   0.000  1.00  0.00     0.031 C 
HETATM   10  C   UNL     1       7.413  -0.040   0.000  1.00  0.00     0.047 C 
HETATM   11  C   UNL     1       8.033  -1.949   0.000  1.00  0.00     0.047 C 
ENDROOT
BRANCH   2  12
HETATM   12  N   UNL     1       5.449   1.043   0.000  1.00  0.00    -0.013 NA
HETATM   13  O   UNL     1       4.150   1.793   0.000  1.00  0.00    -0.042 OA
ENDBRANCH   2  12
TORSDOF 1
