REMARK  3 active torsions:
REMARK  status: ('A' for Active; 'I' for Inactive)
REMARK    1  A    between atoms: C_3  and  N_17 
REMARK    2  A    between atoms: C_8  and  N_17 
REMARK    3  A    between atoms: C_11  and  N_13 
ROOT
HETATM    1  C   UNL     1       6.870  -2.900   0.000  1.00  0.00     0.053 A 
HETATM    2  C   UNL     1       5.571  -3.650   0.000  1.00  0.00     0.068 A 
HETATM    3  C   UNL     1       6.870  -1.399   0.000  1.00  0.00     0.052 A 
HETATM    4  C   UNL     1       4.272  -2.900   0.000  1.00  0.00     0.067 A 
HETATM    5  C   UNL     1       5.571  -0.649   0.000  1.00  0.00     0.088 A 
HETATM    6  C   UNL     1       4.272  -1.399   0.000  1.00  0.00     0.088 A 
HETATM    7  N   UNL     1       2.973  -3.650   0.000  1.00  0.00    -0.104 NA
ENDROOT
BRANCH   2   8
HETATM    8  N   UNL     1       5.571  -5.149   0.000  1.00  0.00    -0.258 NA
BRANCH   8   9
HETATM    9  C   UNL     1       6.870  -5.899   0.000  1.00  0.00     0.037 A 
HETATM   10  C   UNL     1       8.169  -5.149   0.000  1.00  0.00     0.044 A 
HETATM   11  C   UNL     1       9.468  -5.899   0.000  1.00  0.00     0.039 A 
HETATM   12  C   UNL     1       9.468  -7.399   0.000  1.00  0.00     0.153 A 
HETATM   13  C   UNL     1       8.169  -8.149   0.000  1.00  0.00     0.039 A 
HETATM   14  O   UNL     1      10.767  -8.149   0.000  1.00  0.00    -0.223 OA
HETATM   15  C   UNL     1       6.870  -7.399   0.000  1.00  0.00     0.044 A 
ENDBRANCH   8   9
ENDBRANCH   2   8
BRANCH   5  16
HETATM   16  N   UNL     1       5.571   0.851   0.000  1.00  0.00    -0.122 N 
HETATM   17  O   UNL     1       6.870   1.601   0.000  1.00  0.00    -0.532 OA
HETATM   18  O   UNL     1       4.272   1.601   0.000  1.00  0.00    -0.532 OA
ENDBRANCH   5  16
TORSDOF 3
