REMARK  2 active torsions:
REMARK  status: ('A' for Active; 'I' for Inactive)
REMARK    1  A    between atoms: N_3  and  C_17 
REMARK    2  A    between atoms: C_9  and  C_18 
ROOT
HETATM    1  O   UNL     1       0.711   4.816   0.000  1.00  0.00     0.000 OA
HETATM    2  O   UNL     1       2.104   8.045   0.000  1.00  0.00    -0.203 OA
HETATM    3  N   UNL     1       3.318   5.663   0.000  1.00  0.00    -0.287 N 
HETATM    4  O   UNL     1       3.736   3.023   0.000  1.00  0.00    -0.203 OA
HETATM    5  C   UNL     1       0.891   5.663   0.000  1.00  0.00     0.052 A 
HETATM    6  C   UNL     1       2.104   6.545   0.000  1.00  0.00     0.196 A 
HETATM    7  C   UNL     1      -0.576   5.975   0.000  1.00  0.00     0.009 A 
HETATM    8  C   UNL     1      -1.580   4.860   0.000  1.00  0.00     0.000 A 
HETATM    9  C   UNL     1       1.355   4.237   0.000  1.00  0.00     0.052 A 
HETATM   10  C   UNL     1      -1.116   3.434   0.000  1.00  0.00     0.000 A 
HETATM   11  C   UNL     1       0.351   3.122   0.000  1.00  0.00     0.009 A 
HETATM   12  C   UNL     1       2.854   4.237   0.000  1.00  0.00     0.196 A 
HETATM   13  C   UNL     1       0.579   7.130   0.000  1.00  0.00     0.052 A 
HETATM   14  C   UNL     1       1.965   2.866   0.000  1.00  0.00     0.052 A 
ENDROOT
BRANCH   3  15
HETATM   15  C   UNL     1       4.745   6.127   0.000  1.00  0.00     0.166 A 
HETATM   16  N   UNL     1       5.208   7.553   0.000  1.00  0.00    -0.248 NA
HETATM   17  C   UNL     1       6.708   7.553   0.000  1.00  0.00     0.140 A 
HETATM   18  C   UNL     1       7.172   6.127   0.000  1.00  0.00     0.091 A 
HETATM   19  S   UNL     1       5.958   5.245   0.000  1.00  0.00    -0.076 SA
ENDBRANCH   3  15
TORSDOF 2
