REMARK  2 active torsions:
REMARK  status: ('A' for Active; 'I' for Inactive)
REMARK    1  A    between atoms: C_7  and  AS_15 
REMARK    2  A    between atoms: C_10  and  C_19 
ROOT
HETATM    1  C   UNL     1      -2.324  -7.024   0.000  1.00  0.00     0.123 A 
HETATM    2  C   UNL     1      -3.623  -7.774   0.000  1.00  0.00     0.060 A 
HETATM    3  C   UNL     1      -1.024  -7.774   0.000  1.00  0.00     0.086 A 
HETATM    4  C   UNL     1      -1.024  -9.274   0.000  1.00  0.00     0.069 A 
HETATM    5  C   UNL     1      -3.623  -9.274   0.000  1.00  0.00     0.029 A 
HETATM    6  C   UNL     1      -2.324 -10.024   0.000  1.00  0.00    -0.045 A 
HETATM    7  O   UNL     1      -2.324  -5.524   0.000  1.00  0.00    -0.192 OA
HETATM    8  N   UNL     1       0.275  -7.024   0.000  1.00  0.00    -0.223 NA
HETATM    9  C   UNL     1       0.275  -5.524   0.000  1.00  0.00     0.204 A 
HETATM   10  O   UNL     1      -1.024  -4.774   0.000  1.00  0.00    -0.172 OA
ENDROOT
BRANCH   9  11
HETATM   11  C   UNL     1       1.574  -4.774   0.000  1.00  0.00    -0.001 A 
HETATM   12  C   UNL     1       1.574  -3.275   0.000  1.00  0.00     0.026 A 
HETATM   13  C   UNL     1       2.873  -2.525   0.000  1.00  0.00     0.004 A 
HETATM   14  C   UNL     1       4.172  -3.275   0.000  1.00  0.00     0.001 A 
HETATM   15  C   UNL     1       4.172  -4.774   0.000  1.00  0.00     0.004 A 
HETATM   16  C   UNL     1       2.873  -5.524   0.000  1.00  0.00     0.026 A 
ENDBRANCH   9  11
BRANCH   6  17
HETATM   17 AS   UNL     1      -2.324 -11.524   0.000  1.00  0.00     0.000 As
HETATM   18  O   UNL     1      -0.824 -11.524   0.000  1.00  0.00     0.000 OA
HETATM   19  O   UNL     1      -3.824 -11.524   0.000  1.00  0.00     0.000 OA
HETATM   20  O   UNL     1      -2.324 -13.024   0.000  1.00  0.00     0.000 OA
ENDBRANCH   6  17
TORSDOF 2
