REMARK  0 active torsions:
REMARK  status: ('A' for Active; 'I' for Inactive)
ROOT
HETATM    1  N   UNL     1      -5.653  -3.485   0.000  1.00  0.00    -0.330 N 
HETATM    2  O   UNL     1      -3.512  -1.513   0.000  1.00  0.00    -0.195 OA
HETATM    3  O   UNL     1       0.503  -5.972   0.000  1.00  0.00    -0.195 OA
HETATM    4  C   UNL     1      -2.508  -2.628   0.000  1.00  0.00     0.110 A 
HETATM    5  C   UNL     1      -1.041  -2.316   0.000  1.00  0.00     0.061 A 
HETATM    6  C   UNL     1      -0.037  -3.431   0.000  1.00  0.00     0.061 A 
HETATM    7  C   UNL     1      -0.501  -4.857   0.000  1.00  0.00     0.105 A 
HETATM    8  C   UNL     1      -2.972  -4.055   0.000  1.00  0.00     0.034 A 
HETATM    9  C   UNL     1      -1.968  -5.169   0.000  1.00  0.00     0.003 A 
HETATM   10  C   UNL     1      -4.439  -4.367   0.000  1.00  0.00     0.057 A 
HETATM   11  C   UNL     1      -2.432  -6.596   0.000  1.00  0.00     0.033 A 
HETATM   12  C   UNL     1      -4.903  -5.793   0.000  1.00  0.00    -0.009 A 
HETATM   13  C   UNL     1      -3.899  -6.908   0.000  1.00  0.00     0.032 A 
HETATM   14  C   UNL     1      -6.403  -5.793   0.000  1.00  0.00    -0.013 A 
HETATM   15  C   UNL     1      -8.333  -4.055   0.000  1.00  0.00     0.043 A 
HETATM   16  C   UNL     1      -9.337  -5.169   0.000  1.00  0.00     0.007 A 
HETATM   17  C   UNL     1      -6.866  -4.367   0.000  1.00  0.00     0.033 A 
HETATM   18  C   UNL     1      -8.874  -6.596   0.000  1.00  0.00     0.005 A 
HETATM   19  C   UNL     1      -7.406  -6.908   0.000  1.00  0.00     0.027 A 
HETATM   20  C   UNL     1      -5.653  -1.985   0.000  1.00  0.00     0.130 C 
ENDROOT
TORSDOF 0
