REMARK  4 active torsions:
REMARK  status: ('A' for Active; 'I' for Inactive)
REMARK    1  A    between atoms: N_2  and  C_23 
REMARK    2  A    between atoms: C_10  and  N_20 
REMARK    3  A    between atoms: C_13  and  C_16 
REMARK       I    between atoms: N_20  and  C_21 
REMARK    4  A    between atoms: C_21  and  C_23 
ROOT
HETATM    1  N   UNL     1       1.674   7.399   0.000  1.00  0.00    -0.230 NA
HETATM    2  C   UNL     1       1.674   8.899   0.000  1.00  0.00     0.212 C 
HETATM    3  O   UNL     1       0.375   9.649   0.000  1.00  0.00    -0.172 OA
ENDROOT
BRANCH   2   4
HETATM    4  C   UNL     1       2.973   9.649   0.000  1.00  0.00     0.179 C 
BRANCH   4   5
HETATM    5  N   UNL     1       2.973  11.149   0.000  1.00  0.00    -0.306 N 
HETATM    6  C   UNL     1       1.674  11.899   0.000  1.00  0.00     0.114 A 
HETATM    7  C   UNL     1       1.674  13.399   0.000  1.00  0.00     0.097 A 
HETATM    8  C   UNL     1       2.973  14.149   0.000  1.00  0.00     0.172 A 
HETATM    9  N   UNL     1       4.272  13.399   0.000  1.00  0.00    -0.301 N 
HETATM   10  O   UNL     1       2.973  15.649   0.000  1.00  0.00    -0.176 OA
HETATM   11  C   UNL     1       4.272  11.899   0.000  1.00  0.00     0.258 A 
HETATM   12  H   UNL     1       5.571  14.149   0.000  1.00  0.00     0.171 HD
HETATM   13  O   UNL     1       5.571  11.149   0.000  1.00  0.00    -0.151 OA
ENDBRANCH   4   5
ENDBRANCH   2   4
BRANCH   1  14
HETATM   14  C   UNL     1       0.375   6.649   0.000  1.00  0.00     0.046 A 
HETATM   15  C   UNL     1      -0.924   7.399   0.000  1.00  0.00     0.095 A 
HETATM   16  C   UNL     1      -2.223   6.649   0.000  1.00  0.00     0.116 A 
HETATM   17  C   UNL     1      -2.223   5.149   0.000  1.00  0.00     0.064 A 
HETATM   18  O   UNL     1      -3.522   7.399   0.000  1.00  0.00    -0.195 OA
HETATM   19  C   UNL     1      -0.924   4.399   0.000  1.00  0.00     0.040 A 
HETATM   20  C   UNL     1       0.375   5.149   0.000  1.00  0.00     0.047 A 
BRANCH  17  21
HETATM   21  C   UNL     1      -3.522   4.399   0.000  1.00  0.00     0.208 C 
HETATM   22  O   UNL     1      -4.821   5.149   0.000  1.00  0.00    -0.644 OA
HETATM   23  O   UNL     1      -3.522   2.900   0.000  1.00  0.00    -0.644 OA
ENDBRANCH  17  21
ENDBRANCH   1  14
TORSDOF 4
