REMARK  7 active torsions:
REMARK  status: ('A' for Active; 'I' for Inactive)
REMARK    1  A    between atoms: N_1  and  C_2 
REMARK    2  A    between atoms: N_1  and  C_4 
REMARK    3  A    between atoms: N_1  and  C_6 
REMARK    4  A    between atoms: C_6  and  C_7 
REMARK    5  A    between atoms: C_7  and  O_8 
REMARK    6  A    between atoms: O_8  and  C_9 
REMARK    7  A    between atoms: C_9  and  C_10 
ROOT
HETATM    1  C   UNL     1       1.226   3.623   0.000  1.00  0.00     0.130 C 
ENDROOT
BRANCH   1   2
HETATM    2  N   UNL     1      -0.275   3.623   0.000  1.00  0.00    -0.366 N 
BRANCH   2   3
HETATM    3  C   UNL     1      -1.024   4.922   0.000  1.00  0.00     0.097 C 
HETATM    4  C   UNL     1      -2.525   4.922   0.000  1.00  0.00     0.026 C 
ENDBRANCH   2   3
BRANCH   2   5
HETATM    5  C   UNL     1      -1.024   2.324   0.000  1.00  0.00     0.097 C 
HETATM    6  C   UNL     1      -2.525   2.324   0.000  1.00  0.00     0.026 C 
ENDBRANCH   2   5
ENDBRANCH   1   2
BRANCH   1   7
HETATM    7  C   UNL     1       1.976   4.922   0.000  1.00  0.00     0.166 C 
BRANCH   7   8
HETATM    8  O   UNL     1       1.226   6.221   0.000  1.00  0.00    -0.352 OA
BRANCH   8   9
HETATM    9  C   UNL     1       1.976   7.520   0.000  1.00  0.00     0.142 C 
BRANCH   9  10
HETATM   10  C   UNL     1       1.226   8.819   0.000  1.00  0.00     0.032 C 
HETATM   11  C   UNL     1      -0.275   8.819   0.000  1.00  0.00     0.003 C 
ENDBRANCH   9  10
ENDBRANCH   8   9
ENDBRANCH   7   8
ENDBRANCH   1   7
TORSDOF 7
