REMARK  3 active torsions:
REMARK  status: ('A' for Active; 'I' for Inactive)
REMARK    1  A    between atoms: C_9  and  C_11 
REMARK    2  A    between atoms: C_11  and  O_12 
REMARK    3  A    between atoms: O_12  and  C_13 
REMARK       I    between atoms: C_13  and  N_15 
ROOT
HETATM    1  O   UNL     1      -5.471  -5.524   0.000  1.00  0.00    -0.331 OA
HETATM    2  O   UNL     1      -5.471  -8.524   0.000  1.00  0.00    -0.331 OA
HETATM    3  C   UNL     1      -8.069  -5.524   0.000  1.00  0.00     0.053 A 
HETATM    4  C   UNL     1      -9.368  -6.274   0.000  1.00  0.00     0.007 A 
HETATM    5  C   UNL     1      -6.770  -6.274   0.000  1.00  0.00     0.090 A 
HETATM    6  C   UNL     1      -6.770  -7.774   0.000  1.00  0.00     0.090 A 
HETATM    7  C   UNL     1      -9.368  -7.774   0.000  1.00  0.00     0.007 A 
HETATM    8  C   UNL     1      -8.069  -8.524   0.000  1.00  0.00     0.053 A 
HETATM    9  C   UNL     1      -4.172  -6.274   0.000  1.00  0.00     0.181 A 
HETATM   10  C   UNL     1      -4.172  -7.774   0.000  1.00  0.00     0.181 A 
ENDROOT
BRANCH   9  11
HETATM   11  C   UNL     1      -2.873  -5.524   0.000  1.00  0.00     0.185 C 
BRANCH  11  12
HETATM   12  O   UNL     1      -1.573  -6.274   0.000  1.00  0.00    -0.293 OA
BRANCH  12  13
HETATM   13  C   UNL     1      -0.275  -5.524   0.000  1.00  0.00     0.296 C 
HETATM   14  O   UNL     1       1.024  -6.274   0.000  1.00  0.00    -0.143 OA
HETATM   15  N   UNL     1      -0.275  -4.024   0.000  1.00  0.00    -0.304 N 
HETATM   16  C   UNL     1       1.024  -3.275   0.000  1.00  0.00     0.130 C 
HETATM   17  C   UNL     1      -1.574  -3.275   0.000  1.00  0.00     0.130 C 
ENDBRANCH  12  13
ENDBRANCH  11  12
ENDBRANCH   9  11
TORSDOF 3
