REMARK  2 active torsions:
REMARK  status: ('A' for Active; 'I' for Inactive)
REMARK    1  A    between atoms: C_2  and  C_20 
REMARK    2  A    between atoms: C_3  and  C_6 
ROOT
HETATM    1  N   UNL     1       3.240   6.388   0.000  1.00  0.00    -0.331 N 
HETATM    2  C   UNL     1       3.744   8.763   0.000  1.00  0.00     0.038 A 
HETATM    3  C   UNL     1       4.354   7.392   0.000  1.00  0.00     0.051 A 
HETATM    4  C   UNL     1       2.253   8.606   0.000  1.00  0.00     0.074 A 
HETATM    5  C   UNL     1       1.941   7.138   0.000  1.00  0.00     0.037 A 
HETATM    6  C   UNL     1       0.642   6.388   0.000  1.00  0.00    -0.018 A 
HETATM    7  C   UNL     1      -0.657   7.138   0.000  1.00  0.00     0.027 A 
HETATM    8  C   UNL     1      -1.956   6.388   0.000  1.00  0.00     0.005 A 
HETATM    9  C   UNL     1       0.642   4.888   0.000  1.00  0.00    -0.045 A 
HETATM   10  C   UNL     1      -1.956   4.888   0.000  1.00  0.00     0.005 A 
HETATM   11  C   UNL     1      -0.657   4.138   0.000  1.00  0.00     0.022 A 
HETATM   12  C   UNL     1       1.941   4.138   0.000  1.00  0.00     0.046 A 
HETATM   13  C   UNL     1       3.240   4.888   0.000  1.00  0.00     0.110 A 
ENDROOT
BRANCH   3  14
HETATM   14  C   UNL     1       5.822   7.080   0.000  1.00  0.00    -0.029 A 
HETATM   15  C   UNL     1       6.285   5.654   0.000  1.00  0.00     0.024 A 
HETATM   16  C   UNL     1       7.753   5.342   0.000  1.00  0.00     0.004 A 
HETATM   17  C   UNL     1       8.756   6.457   0.000  1.00  0.00     0.001 A 
HETATM   18  C   UNL     1       8.293   7.883   0.000  1.00  0.00     0.004 A 
HETATM   19  C   UNL     1       6.825   8.195   0.000  1.00  0.00     0.024 A 
ENDBRANCH   3  14
BRANCH   2  20
HETATM   20  C   UNL     1       4.494  10.062   0.000  1.00  0.00     0.198 C 
HETATM   21  O   UNL     1       3.744  11.361   0.000  1.00  0.00    -0.175 OA
HETATM   22  N   UNL     1       5.994  10.062   0.000  1.00  0.00    -0.071 NA
ENDBRANCH   2  20
TORSDOF 2
