REMARK  4 active torsions:
REMARK  status: ('A' for Active; 'I' for Inactive)
REMARK    1  A    between atoms: N_1  and  C_5 
REMARK    2  A    between atoms: N_1  and  N_2 
REMARK    3  A    between atoms: N_2  and  C_14 
REMARK    4  A    between atoms: C_8  and  N_15 
ROOT
HETATM    1  C   UNL     1       4.272   4.399   0.000  1.00  0.00     0.049 A 
HETATM    2  C   UNL     1       4.272   5.899   0.000  1.00  0.00     0.059 A 
HETATM    3  C   UNL     1       5.571   3.650   0.000  1.00  0.00     0.045 A 
HETATM    4  C   UNL     1       5.571   6.649   0.000  1.00  0.00     0.049 A 
HETATM    5  C   UNL     1       6.870   4.399   0.000  1.00  0.00     0.011 A 
HETATM    6  C   UNL     1       6.870   5.899   0.000  1.00  0.00     0.045 A 
ENDROOT
BRANCH   2   7
HETATM    7  N   UNL     1       2.973   6.649   0.000  1.00  0.00    -0.156 NA
BRANCH   7   8
HETATM    8  N   UNL     1       2.973   8.149   0.000  1.00  0.00    -0.134 NA
BRANCH   8   9
HETATM    9  C   UNL     1       1.674   8.899   0.000  1.00  0.00     0.156 A 
HETATM   10  N   UNL     1       0.375   8.149   0.000  1.00  0.00    -0.255 NA
HETATM   11  C   UNL     1      -0.924   8.899   0.000  1.00  0.00     0.127 A 
HETATM   12  C   UNL     1      -0.924  10.399   0.000  1.00  0.00     0.027 A 
HETATM   13  C   UNL     1       0.375  11.149   0.000  1.00  0.00     0.010 A 
HETATM   14  C   UNL     1       1.674  10.399   0.000  1.00  0.00     0.067 A 
ENDBRANCH   8   9
ENDBRANCH   7   8
ENDBRANCH   2   7
BRANCH   5  15
HETATM   15  N   UNL     1       8.169   3.650   0.000  1.00  0.00    -0.351 N 
HETATM   16  C   UNL     1       8.169   2.150   0.000  1.00  0.00     0.125 C 
HETATM   17  C   UNL     1       9.468   4.399   0.000  1.00  0.00     0.125 C 
ENDBRANCH   5  15
TORSDOF 4
