REMARK  1 active torsions:
REMARK  status: ('A' for Active; 'I' for Inactive)
REMARK    1  A    between atoms: C_9  and  C_11 
ROOT
HETATM    1  O   UNL     1      -0.730  -3.147   0.000  1.00  0.00    -0.286 OA
HETATM    2  N   UNL     1      -0.730  -5.575   0.000  1.00  0.00    -0.327 N 
HETATM    3  H   UNL     1      -0.266  -7.001   0.000  1.00  0.00     0.168 HD
HETATM    4  S   UNL     1       1.652  -4.361   0.000  1.00  0.00    -0.033 SA
HETATM    5  C   UNL     1      -3.455  -2.861   0.000  1.00  0.00     0.057 A 
HETATM    6  C   UNL     1      -4.755  -3.611   0.000  1.00  0.00     0.029 A 
HETATM    7  C   UNL     1      -2.156  -3.611   0.000  1.00  0.00     0.092 A 
HETATM    8  C   UNL     1      -2.156  -5.111   0.000  1.00  0.00     0.059 A 
HETATM    9  C   UNL     1      -4.755  -5.111   0.000  1.00  0.00    -0.046 A 
HETATM   10  C   UNL     1      -3.455  -5.861   0.000  1.00  0.00     0.067 A 
HETATM   11  C   UNL     1       0.152  -4.361   0.000  1.00  0.00     0.219 A 
ENDROOT
BRANCH   9  12
HETATM   12  C   UNL     1      -6.053  -5.861   0.000  1.00  0.00    -0.052 A 
HETATM   13  C   UNL     1      -6.053  -7.361   0.000  1.00  0.00     0.021 A 
HETATM   14  C   UNL     1      -7.353  -8.111   0.000  1.00  0.00     0.004 A 
HETATM   15  C   UNL     1      -8.652  -7.361   0.000  1.00  0.00     0.001 A 
HETATM   16  C   UNL     1      -8.652  -5.861   0.000  1.00  0.00     0.004 A 
HETATM   17  C   UNL     1      -7.353  -5.111   0.000  1.00  0.00     0.021 A 
ENDBRANCH   9  12
TORSDOF 1
