REMARK  1 active torsions:
REMARK  status: ('A' for Active; 'I' for Inactive)
REMARK    1  A    between atoms: C_13  and  O_20 
ROOT
HETATM    1  O   UNL     1      -2.973 -11.149   0.000  1.00  0.00    -0.151 OA
HETATM    2  H   UNL     1      -2.973  -8.149   0.000  1.00  0.00     0.171 HD
HETATM    3  N   UNL     1      -1.674  -8.899   0.000  1.00  0.00    -0.298 N 
HETATM    4  N   UNL     1      -0.375 -11.149   0.000  1.00  0.00    -0.300 N 
HETATM    5  O   UNL     1      -0.375  -6.649   0.000  1.00  0.00    -0.171 OA
HETATM    6  H   UNL     1      -0.375 -12.649   0.000  1.00  0.00     0.171 HD
HETATM    7  O   UNL     1       2.223 -11.149   0.000  1.00  0.00    -0.296 OA
HETATM    8  C   UNL     1      -0.375  -8.149   0.000  1.00  0.00     0.193 A 
HETATM    9  C   UNL     1       0.924  -8.899   0.000  1.00  0.00     0.063 A 
HETATM   10  C   UNL     1       0.924 -10.399   0.000  1.00  0.00     0.162 A 
HETATM   11  C   UNL     1       4.821  -8.149   0.000  1.00  0.00     0.077 A 
HETATM   12  C   UNL     1       3.522  -8.899   0.000  1.00  0.00    -0.014 A 
HETATM   13  C   UNL     1       6.120  -8.899   0.000  1.00  0.00     0.097 A 
HETATM   14  C   UNL     1       6.120 -10.399   0.000  1.00  0.00     0.133 A 
HETATM   15  C   UNL     1       3.522 -10.399   0.000  1.00  0.00     0.079 A 
HETATM   16  C   UNL     1       4.821 -11.149   0.000  1.00  0.00     0.107 A 
HETATM   17  C   UNL     1      -1.674 -10.399   0.000  1.00  0.00     0.259 A 
HETATM   18  C   UNL     1       2.223  -8.149   0.000  1.00  0.00     0.058 A 
HETATM   19  O   UNL     1       7.419 -11.149   0.000  1.00  0.00    -0.193 OA
ENDROOT
BRANCH  13  20
HETATM   20  O   UNL     1       7.419  -8.149   0.000  1.00  0.00    -0.330 OA
HETATM   21  C   UNL     1       8.718  -8.899   0.000  1.00  0.00     0.181 C 
ENDBRANCH  13  20
TORSDOF 1
