REMARK  0 active torsions:
REMARK  status: ('A' for Active; 'I' for Inactive)
ROOT
HETATM    1  N   UNL     1       5.658  -1.102   0.000  1.00  0.00    -0.250 NA
HETATM    2  N   UNL     1       9.265   0.398   0.000  1.00  0.00    -0.305 N 
HETATM    3  O   UNL     1      11.639   1.454   0.000  1.00  0.00    -0.171 OA
HETATM    4  O   UNL     1      13.469  -2.656   0.000  1.00  0.00    -0.324 OA
HETATM    5  O   UNL     1      13.197  -5.240   0.000  1.00  0.00    -0.329 OA
HETATM    6  C   UNL     1      10.757   0.241   0.000  1.00  0.00     0.192 A 
HETATM    7  C   UNL     1      11.367  -1.129   0.000  1.00  0.00     0.044 A 
HETATM    8  C   UNL     1      12.859  -1.286   0.000  1.00  0.00     0.174 A 
HETATM    9  C   UNL     1      10.486  -2.343   0.000  1.00  0.00    -0.004 A 
HETATM   10  C   UNL     1       8.994  -2.186   0.000  1.00  0.00     0.070 A 
HETATM   11  C   UNL     1      11.096  -3.713   0.000  1.00  0.00     0.196 A 
HETATM   12  C   UNL     1      12.587  -3.870   0.000  1.00  0.00     0.269 A 
HETATM   13  C   UNL     1       8.384  -0.816   0.000  1.00  0.00     0.060 A 
HETATM   14  C   UNL     1       6.957  -0.352   0.000  1.00  0.00     0.087 A 
HETATM   15  C   UNL     1       8.384   1.611   0.000  1.00  0.00     0.132 A 
HETATM   16  C   UNL     1       6.957   1.148   0.000  1.00  0.00     0.001 A 
HETATM   17  C   UNL     1       5.658   1.898   0.000  1.00  0.00     0.049 A 
HETATM   18  C   UNL     1       4.359   1.148   0.000  1.00  0.00    -0.026 A 
HETATM   19  C   UNL     1       3.060   1.898   0.000  1.00  0.00     0.024 A 
HETATM   20  C   UNL     1       1.761   1.148   0.000  1.00  0.00     0.005 A 
HETATM   21  C   UNL     1       4.359  -0.352   0.000  1.00  0.00     0.051 A 
HETATM   22  C   UNL     1       1.761  -0.352   0.000  1.00  0.00     0.007 A 
HETATM   23  C   UNL     1       3.060  -1.102   0.000  1.00  0.00     0.045 A 
HETATM   24  O   UNL     1       9.640  -4.076   0.000  1.00  0.00    -0.216 OA
HETATM   25  C   UNL     1      11.200  -5.210   0.000  1.00  0.00     0.072 A 
HETATM   26  C   UNL     1      12.549  -5.867   0.000  1.00  0.00     0.148 A 
ENDROOT
TORSDOF 0
