REMARK  1 active torsions:
REMARK  status: ('A' for Active; 'I' for Inactive)
REMARK    1  A    between atoms: C_2  and  C_8 
ROOT
HETATM    1  C   UNL     1      -2.223  -3.650   0.000  1.00  0.00     0.043 A 
HETATM    2  C   UNL     1      -0.924  -4.399   0.000  1.00  0.00     0.116 A 
HETATM    3  C   UNL     1      -3.522  -4.399   0.000  1.00  0.00     0.015 A 
HETATM    4  C   UNL     1      -0.924  -5.899   0.000  1.00  0.00     0.131 A 
HETATM    5  C   UNL     1      -3.522  -5.899   0.000  1.00  0.00     0.149 A 
HETATM    6 BR   UNL     1      -4.821  -3.650   0.000  1.00  0.00    -0.057 Br
HETATM    7  N   UNL     1      -2.223  -6.649   0.000  1.00  0.00    -0.290 NA
ENDROOT
BRANCH   2   8
HETATM    8  C   UNL     1       0.375  -3.650   0.000  1.00  0.00     0.187 C 
HETATM    9  O   UNL     1       1.674  -4.399   0.000  1.00  0.00    -0.647 OA
HETATM   10  O   UNL     1       0.375  -2.150   0.000  1.00  0.00    -0.647 OA
ENDBRANCH   2   8
TORSDOF 1
