REMARK  3 active torsions:
REMARK  status: ('A' for Active; 'I' for Inactive)
REMARK    1  A    between atoms: C_7  and  C_14 
REMARK    2  A    between atoms: C_8  and  C_13 
REMARK    3  A    between atoms: C_13  and  C_14 
ROOT
HETATM    1  C   UNL     1       4.647  -5.250   0.000  1.00  0.00     0.047 C 
ENDROOT
BRANCH   1   2
HETATM    2  C   UNL     1       5.946  -6.000   0.000  1.00  0.00     0.032 A 
HETATM    3  N   UNL     1       5.946  -7.500   0.000  1.00  0.00    -0.279 NA
HETATM    4  C   UNL     1       7.245  -8.250   0.000  1.00  0.00     0.125 A 
HETATM    5  C   UNL     1       8.544  -7.500   0.000  1.00  0.00     0.027 A 
HETATM    6  C   UNL     1       8.544  -6.000   0.000  1.00  0.00     0.008 A 
HETATM    7  C   UNL     1       7.245  -5.250   0.000  1.00  0.00     0.041 A 
ENDBRANCH   1   2
BRANCH   1   8
HETATM    8  C   UNL     1       4.647  -3.750   0.000  1.00  0.00     0.047 C 
BRANCH   8   9
HETATM    9  C   UNL     1       3.348  -3.000   0.000  1.00  0.00     0.032 A 
HETATM   10  N   UNL     1       2.049  -3.750   0.000  1.00  0.00    -0.279 NA
HETATM   11  C   UNL     1       0.750  -3.000   0.000  1.00  0.00     0.125 A 
HETATM   12  C   UNL     1       0.750  -1.500   0.000  1.00  0.00     0.027 A 
HETATM   13  C   UNL     1       2.049  -0.750   0.000  1.00  0.00     0.008 A 
HETATM   14  C   UNL     1       3.348  -1.500   0.000  1.00  0.00     0.041 A 
ENDBRANCH   8   9
ENDBRANCH   1   8
TORSDOF 3
