REMARK  8 active torsions:
REMARK  status: ('A' for Active; 'I' for Inactive)
REMARK    1  A    between atoms: C_6  and  N_11 
REMARK    2  A    between atoms: N_11  and  P_16 
REMARK    3  A    between atoms: O_12  and  C_13 
REMARK    4  A    between atoms: O_12  and  P_16 
REMARK    5  A    between atoms: C_13  and  C_14 
REMARK    6  A    between atoms: P_16  and  O_17 
REMARK    7  A    between atoms: O_17  and  C_18 
REMARK    8  A    between atoms: C_18  and  C_19 
ROOT
HETATM    1  N   UNL     1       2.078  -6.901   0.000  1.00  0.00    -0.014 NA
ENDROOT
BRANCH   1   2
HETATM    2  C   UNL     1       0.779  -7.651   0.000  1.00  0.00     0.733 A 
HETATM    3  N   UNL     1      -0.520  -6.901   0.000  1.00  0.00    -0.177 N 
HETATM    4  H   UNL     1      -0.520  -5.401   0.000  1.00  0.00     0.185 HD
HETATM    5  C   UNL     1      -1.819  -7.651   0.000  1.00  0.00     0.129 A 
HETATM    6  C   UNL     1      -1.819  -9.151   0.000  1.00  0.00     0.134 A 
HETATM    7  N   UNL     1      -3.118  -6.901   0.000  1.00  0.00    -0.086 NA
HETATM    8  C   UNL     1      -0.520  -9.901   0.000  1.00  0.00     0.214 A 
HETATM    9  O   UNL     1      -0.520 -11.401   0.000  1.00  0.00    -0.173 OA
HETATM   10  N   UNL     1       0.779  -9.151   0.000  1.00  0.00    -0.038 NA
ENDBRANCH   1   2
BRANCH   1  11
HETATM   11  P   UNL     1       3.377  -7.651   0.000  1.00  0.00     0.329 P 
HETATM   12  S   UNL     1       4.676  -8.401   0.000  1.00  0.00    -0.012 SA
BRANCH  11  13
HETATM   13  O   UNL     1       4.127  -6.352   0.000  1.00  0.00    -0.298 OA
BRANCH  13  14
HETATM   14  C   UNL     1       3.377  -5.053   0.000  1.00  0.00     0.151 C 
BRANCH  14  15
HETATM   15  C   UNL     1       1.877  -5.053   0.000  1.00  0.00     0.033 C 
HETATM   16  C   UNL     1       1.127  -3.754   0.000  1.00  0.00     0.003 C 
ENDBRANCH  14  15
ENDBRANCH  13  14
ENDBRANCH  11  13
BRANCH  11  17
HETATM   17  O   UNL     1       2.627  -8.950   0.000  1.00  0.00    -0.298 OA
BRANCH  17  18
HETATM   18  C   UNL     1       3.377 -10.249   0.000  1.00  0.00     0.151 C 
BRANCH  18  19
HETATM   19  C   UNL     1       2.627 -11.548   0.000  1.00  0.00     0.033 C 
HETATM   20  C   UNL     1       1.127 -11.548   0.000  1.00  0.00     0.003 C 
ENDBRANCH  18  19
ENDBRANCH  17  18
ENDBRANCH  11  17
ENDBRANCH   1  11
TORSDOF 8
