REMARK  5 active torsions:
REMARK  status: ('A' for Active; 'I' for Inactive)
REMARK    1  A    between atoms: C_13  and  C_23 
REMARK    2  A    between atoms: C_14  and  N_24 
REMARK    3  A    between atoms: C_17  and  C_21 
REMARK    4  A    between atoms: C_21  and  C_22 
REMARK    5  A    between atoms: C_22  and  C_23 
ROOT
HETATM    1  O   UNL     1       0.750   4.446   0.000  1.00  0.00    -0.150 OA
HETATM    2  N   UNL     1       2.049   6.696   0.000  1.00  0.00    -0.268 N 
HETATM    3  O   UNL     1       3.348   8.946   0.000  1.00  0.00    -0.169 OA
HETATM    4  N   UNL     1       3.348   4.446   0.000  1.00  0.00    -0.275 N 
HETATM    5  N   UNL     1       6.074   7.160   0.000  1.00  0.00    -0.337 N 
HETATM    6  H   UNL     1       6.537   8.586   0.000  1.00  0.00     0.167 HD
HETATM    7  N   UNL     1       6.074   4.733   0.000  1.00  0.00    -0.214 NA
HETATM    8  C   UNL     1       3.348   7.446   0.000  1.00  0.00     0.216 A 
HETATM    9  C   UNL     1       4.647   6.696   0.000  1.00  0.00     0.135 A 
HETATM   10  C   UNL     1       4.647   5.196   0.000  1.00  0.00     0.167 A 
HETATM   11  C   UNL     1       6.955   5.946   0.000  1.00  0.00     0.119 A 
HETATM   12  C   UNL     1       2.049   5.196   0.000  1.00  0.00     0.266 A 
HETATM   13  C   UNL     1       0.750   7.446   0.000  1.00  0.00     0.136 C 
HETATM   14  C   UNL     1       3.348   2.946   0.000  1.00  0.00     0.136 C 
ENDROOT
BRANCH  11  15
HETATM   15  C   UNL     1       8.455   5.946   0.000  1.00  0.00     0.064 C 
BRANCH  15  16
HETATM   16  C   UNL     1       9.205   7.245   0.000  1.00  0.00     0.008 C 
BRANCH  16  17
HETATM   17  C   UNL     1      10.705   7.245   0.000  1.00  0.00     0.001 C 
BRANCH  17  18
HETATM   18  C   UNL     1      11.455   5.946   0.000  1.00  0.00     0.001 A 
HETATM   19  C   UNL     1      12.955   5.946   0.000  1.00  0.00     0.006 A 
HETATM   20  C   UNL     1      13.705   4.647   0.000  1.00  0.00     0.046 A 
HETATM   21  C   UNL     1      12.955   3.348   0.000  1.00  0.00     0.082 A 
HETATM   22  C   UNL     1      11.455   3.348   0.000  1.00  0.00     0.046 A 
HETATM   23  C   UNL     1      10.705   4.647   0.000  1.00  0.00     0.006 A 
BRANCH  21  24
HETATM   24  N   UNL     1      13.705   2.049   0.000  1.00  0.00    -0.122 N 
HETATM   25  O   UNL     1      15.205   2.049   0.000  1.00  0.00    -0.532 OA
HETATM   26  O   UNL     1      12.955   0.750   0.000  1.00  0.00    -0.532 OA
ENDBRANCH  21  24
ENDBRANCH  17  18
ENDBRANCH  16  17
ENDBRANCH  15  16
ENDBRANCH  11  15
TORSDOF 5
