REMARK  2 active torsions:
REMARK  status: ('A' for Active; 'I' for Inactive)
REMARK    1  A    between atoms: C_24  and  O_27 
REMARK    2  A    between atoms: O_27  and  C_28 
ROOT
HETATM    1  H   UNL     1      -3.970  -4.117   0.000  1.00  0.00     0.290 HD
HETATM    2  O   UNL     1      -2.443  -7.719   0.000  1.00  0.00     0.000 OA
HETATM    3  N   UNL     1      -2.600  -4.728   0.000  1.00  0.00    -0.022 N 
HETATM    4  C   UNL     1      -1.386  -3.846   0.000  1.00  0.00     0.214 A 
HETATM    5  C   UNL     1      -0.016  -4.456   0.000  1.00  0.00     0.035 A 
HETATM    6  C   UNL     1       0.141  -5.948   0.000  1.00  0.00     0.025 A 
HETATM    7  C   UNL     1      -1.073  -6.829   0.000  1.00  0.00    -0.021 A 
HETATM    8  C   UNL     1      -2.443  -6.219   0.000  1.00  0.00     0.229 A 
HETATM    9  C   UNL     1      -3.870  -5.756   0.000  1.00  0.00     0.192 A 
HETATM   10  C   UNL     1      -4.751  -6.969   0.000  1.00  0.00     0.052 A 
HETATM   11  C   UNL     1      -3.870  -8.183   0.000  1.00  0.00    -0.046 A 
HETATM   12  C   UNL     1      -6.178  -7.433   0.000  1.00  0.00     0.038 A 
HETATM   13  C   UNL     1      -7.477  -6.683   0.000  1.00  0.00    -0.048 A 
HETATM   14  C   UNL     1      -8.776  -7.433   0.000  1.00  0.00    -0.049 A 
HETATM   15  C   UNL     1      -6.178  -8.933   0.000  1.00  0.00    -0.044 A 
HETATM   16  C   UNL     1      -8.776  -8.933   0.000  1.00  0.00     0.033 A 
HETATM   17  C   UNL     1      -4.751  -9.396   0.000  1.00  0.00     0.043 A 
HETATM   18  C   UNL     1      -7.477  -9.683   0.000  1.00  0.00    -0.048 A 
HETATM   19  C   UNL     1     -10.075  -9.683   0.000  1.00  0.00     0.011 A 
HETATM   20  C   UNL     1     -11.374  -8.933   0.000  1.00  0.00     0.007 A 
HETATM   21  C   UNL     1     -12.673  -9.683   0.000  1.00  0.00     0.030 A 
HETATM   22  C   UNL     1      -7.477 -11.183   0.000  1.00  0.00     0.022 A 
HETATM   23  C   UNL     1     -10.075 -11.183   0.000  1.00  0.00     0.004 A 
HETATM   24  C   UNL     1     -12.673 -11.183   0.000  1.00  0.00     0.118 A 
HETATM   25  C   UNL     1      -8.776 -11.933   0.000  1.00  0.00     0.004 A 
HETATM   26  C   UNL     1     -11.374 -11.933   0.000  1.00  0.00     0.030 A 
HETATM   27  C   UNL     1     -10.075  -8.183   0.000  1.00  0.00     0.022 A 
HETATM   28  C   UNL     1      -6.021  -5.941   0.000  1.00  0.00     0.031 A 
HETATM   29  C   UNL     1      -4.333  -4.329   0.000  1.00  0.00     0.028 A 
HETATM   30  C   UNL     1       1.198  -3.574   0.000  1.00  0.00     0.002 C 
ENDROOT
BRANCH  24  31
HETATM   31  O   UNL     1     -13.972 -11.933   0.000  1.00  0.00    -0.332 OA
BRANCH  31  32
HETATM   32  C   UNL     1     -15.271 -11.183   0.000  1.00  0.00     0.269 C 
HETATM   33  O   UNL     1     -16.570 -11.933   0.000  1.00  0.00    -0.190 OA
HETATM   34  C   UNL     1     -15.271  -9.683   0.000  1.00  0.00     0.070 C 
ENDBRANCH  31  32
ENDBRANCH  24  31
TORSDOF 2
