REMARK  0 active torsions:
REMARK  status: ('A' for Active; 'I' for Inactive)
ROOT
HETATM    1  N   UNL     1      -3.522  -5.899   0.000  1.00  0.00    -0.293 N 
HETATM    2  C   UNL     1      -4.821  -3.650   0.000  1.00  0.00     0.050 A 
HETATM    3  C   UNL     1      -6.120  -4.399   0.000  1.00  0.00     0.033 A 
HETATM    4  C   UNL     1      -3.522  -4.399   0.000  1.00  0.00     0.051 A 
HETATM    5  C   UNL     1      -6.120  -5.899   0.000  1.00  0.00    -0.014 A 
HETATM    6  C   UNL     1      -7.419  -6.649   0.000  1.00  0.00    -0.033 A 
HETATM    7  C   UNL     1      -4.821  -6.649   0.000  1.00  0.00     0.039 A 
HETATM    8  C   UNL     1      -8.718  -5.899   0.000  1.00  0.00     0.025 A 
HETATM    9  C   UNL     1     -10.017  -6.649   0.000  1.00  0.00     0.005 A 
HETATM   10  C   UNL     1      -4.821  -8.149   0.000  1.00  0.00     0.048 A 
HETATM   11  C   UNL     1      -7.419  -8.149   0.000  1.00  0.00    -0.048 A 
HETATM   12  C   UNL     1     -10.017  -8.149   0.000  1.00  0.00     0.005 A 
HETATM   13  C   UNL     1      -6.120  -8.899   0.000  1.00  0.00     0.028 A 
HETATM   14  C   UNL     1      -8.718  -8.899   0.000  1.00  0.00     0.022 A 
HETATM   15  C   UNL     1      -0.924  -4.399   0.000  1.00  0.00     0.111 A 
HETATM   16  C   UNL     1      -0.924  -5.899   0.000  1.00  0.00     0.017 A 
HETATM   17  C   UNL     1       0.375  -3.650   0.000  1.00  0.00     0.084 A 
HETATM   18  C   UNL     1       1.674  -4.399   0.000  1.00  0.00     0.019 A 
HETATM   19  C   UNL     1       0.375  -6.649   0.000  1.00  0.00     0.027 A 
HETATM   20  C   UNL     1       1.674  -5.899   0.000  1.00  0.00     0.006 A 
HETATM   21  C   UNL     1      -2.223  -3.650   0.000  1.00  0.00     0.045 A 
HETATM   22  N   UNL     1      -0.924  -2.900   0.000  1.00  0.00    -0.247 NA
HETATM   23  C   UNL     1      -2.223  -6.649   0.000  1.00  0.00     0.191 A 
HETATM   24  O   UNL     1      -2.223  -8.149   0.000  1.00  0.00    -0.171 OA
ENDROOT
TORSDOF 0
