REMARK  4 active torsions:
REMARK  status: ('A' for Active; 'I' for Inactive)
REMARK    1  A    between atoms: N_1  and  C_6 
REMARK    2  A    between atoms: C_6  and  C_7 
REMARK    3  A    between atoms: C_7  and  C_8 
REMARK    4  A    between atoms: C_8  and  C_9 
ROOT
HETATM    1  C   UNL     1       8.830   0.555   0.000  1.00  0.00     0.090 C 
HETATM    2  C   UNL     1      10.256   1.019   0.000  1.00  0.00    -0.006 C 
HETATM    3  N   UNL     1      11.683   1.482   0.000  1.00  0.00    -0.101 N 
ENDROOT
BRANCH   1   4
HETATM    4  C   UNL     1       7.715   1.559   0.000  1.00  0.00     0.017 C 
BRANCH   4   5
HETATM    5  C   UNL     1       6.288   1.095   0.000  1.00  0.00     0.025 C 
BRANCH   5   6
HETATM    6  C   UNL     1       5.174   2.099   0.000  1.00  0.00     0.097 C 
BRANCH   6   7
HETATM    7  N   UNL     1       3.747   1.636   0.000  1.00  0.00    -0.368 N 
HETATM    8  C   UNL     1       2.534   2.517   0.000  1.00  0.00     0.097 A 
HETATM    9  C   UNL     1       1.320   1.636   0.000  1.00  0.00     0.026 A 
HETATM   10  C   UNL     1       1.784   0.209   0.000  1.00  0.00     0.026 A 
HETATM   11  C   UNL     1       3.284   0.209   0.000  1.00  0.00     0.097 A 
ENDBRANCH   6   7
ENDBRANCH   5   6
ENDBRANCH   4   5
ENDBRANCH   1   4
TORSDOF 4
