REMARK  0 active torsions:
REMARK  status: ('A' for Active; 'I' for Inactive)
ROOT
HETATM    1  O   UNL     1      -0.615   3.511   0.000  1.00  0.00    -0.175 OA
HETATM    2  C   UNL     1       0.685   5.761   0.000  1.00  0.00     0.133 A 
HETATM    3  C   UNL     1       0.685   4.261   0.000  1.00  0.00     0.177 A 
HETATM    4  C   UNL     1       1.984   6.511   0.000  1.00  0.00     0.135 A 
HETATM    5  N   UNL     1       1.984   3.511   0.000  1.00  0.00    -0.306 N 
HETATM    6  H   UNL     1       1.984   2.011   0.000  1.00  0.00     0.171 HD
HETATM    7  C   UNL     1       3.283   4.261   0.000  1.00  0.00     0.225 A 
HETATM    8  N   UNL     1       3.283   5.761   0.000  1.00  0.00    -0.213 N 
HETATM    9  N   UNL     1       4.709   6.225   0.000  1.00  0.00    -0.087 NA
HETATM   10  N   UNL     1       4.709   3.798   0.000  1.00  0.00    -0.216 NA
HETATM   11  C   UNL     1       5.591   5.011   0.000  1.00  0.00     0.242 A 
HETATM   12  N   UNL     1       1.984   8.011   0.000  1.00  0.00    -0.084 NA
ENDROOT
TORSDOF 0
