REMARK  1 active torsions:
REMARK  status: ('A' for Active; 'I' for Inactive)
REMARK    1  A    between atoms: C_10  and  C_13 
ROOT
HETATM    1  N   UNL     1      -3.882  -2.177   0.000  1.00  0.00    -0.343 N 
HETATM    2  H   UNL     1      -3.418  -0.750   0.000  1.00  0.00     0.167 HD
HETATM    3  N   UNL     1      -3.882  -4.604   0.000  1.00  0.00    -0.234 NA
HETATM    4  C   UNL     1      -6.607  -1.890   0.000  1.00  0.00     0.066 A 
HETATM    5  C   UNL     1      -7.906  -2.640   0.000  1.00  0.00    -0.045 A 
HETATM    6  C   UNL     1      -5.308  -2.640   0.000  1.00  0.00     0.053 A 
HETATM    7  C   UNL     1      -5.308  -4.140   0.000  1.00  0.00     0.076 A 
HETATM    8  C   UNL     1      -7.906  -4.140   0.000  1.00  0.00    -0.045 A 
HETATM    9  C   UNL     1      -6.607  -4.890   0.000  1.00  0.00     0.068 A 
HETATM   10  C   UNL     1      -3.000  -3.390   0.000  1.00  0.00     0.133 A 
HETATM   11  C   UNL     1      -9.205  -1.890   0.000  1.00  0.00     0.026 C 
HETATM   12  C   UNL     1      -9.205  -4.890   0.000  1.00  0.00     0.026 C 
ENDROOT
BRANCH  10  13
HETATM   13  C   UNL     1      -1.500  -3.390   0.000  1.00  0.00     0.155 C 
HETATM   14  S   UNL     1      -0.750  -4.689   0.000  1.00  0.00    -0.101 SA
ENDBRANCH  10  13
TORSDOF 1
