REMARK  5 active torsions:
REMARK  status: ('A' for Active; 'I' for Inactive)
REMARK    1  A    between atoms: C_2  and  C_6 
REMARK    2  A    between atoms: C_6  and  N_7 
REMARK    3  A    between atoms: N_7  and  C_8 
REMARK    4  A    between atoms: C_8  and  C_9 
REMARK    5  A    between atoms: C_9  and  C_10 
ROOT
HETATM    1  C   UNL     1      -6.000  -1.964   0.000  1.00  0.00     0.149 C 
ENDROOT
BRANCH   1   2
HETATM    2  C   UNL     1      -7.500  -1.964   0.000  1.00  0.00     0.139 A 
HETATM    3  O   UNL     1      -8.382  -0.750   0.000  1.00  0.00    -0.355 OA
HETATM    4  C   UNL     1      -9.808  -1.214   0.000  1.00  0.00     0.142 A 
HETATM    5  C   UNL     1      -9.808  -2.713   0.000  1.00  0.00     0.035 A 
HETATM    6  C   UNL     1      -8.382  -3.177   0.000  1.00  0.00     0.034 A 
ENDBRANCH   1   2
BRANCH   1   7
HETATM    7  N   UNL     1      -5.250  -3.263   0.000  1.00  0.00    -0.293 NA
BRANCH   7   8
HETATM    8  C   UNL     1      -3.750  -3.263   0.000  1.00  0.00     0.120 C 
BRANCH   8   9
HETATM    9  C   UNL     1      -3.000  -1.964   0.000  1.00  0.00     0.026 C 
BRANCH   9  10
HETATM   10  C   UNL     1      -1.500  -1.964   0.000  1.00  0.00     0.002 C 
HETATM   11  C   UNL     1      -0.750  -3.263   0.000  1.00  0.00     0.000 C 
ENDBRANCH   9  10
ENDBRANCH   8   9
ENDBRANCH   7   8
ENDBRANCH   1   7
TORSDOF 5
