REMARK  0 active torsions:
REMARK  status: ('A' for Active; 'I' for Inactive)
ROOT
HETATM    1  O   UNL     1       1.472  -2.335   0.000  1.00  0.00    -0.226 OA
HETATM    2  C   UNL     1       1.472  -3.835   0.000  1.00  0.00     0.126 A 
HETATM    3  C   UNL     1       2.686  -4.716   0.000  1.00  0.00     0.030 A 
HETATM    4  C   UNL     1       0.259  -4.716   0.000  1.00  0.00     0.023 A 
HETATM    5  C   UNL     1      -1.209  -4.404   0.000  1.00  0.00     0.004 A 
HETATM    6  C   UNL     1      -2.212  -5.519   0.000  1.00  0.00    -0.002 A 
HETATM    7  C   UNL     1       2.222  -6.143   0.000  1.00  0.00    -0.004 A 
HETATM    8  C   UNL     1       0.722  -6.143   0.000  1.00  0.00     0.016 A 
HETATM    9  C   UNL     1      -1.749  -6.946   0.000  1.00  0.00     0.035 A 
HETATM   10  C   UNL     1      -0.282  -7.258   0.000  1.00  0.00     0.012 A 
HETATM   11  C   UNL     1      -2.752  -8.061   0.000  1.00  0.00    -0.044 A 
HETATM   12  C   UNL     1      -4.220  -7.749   0.000  1.00  0.00    -0.046 A 
HETATM   13  C   UNL     1      -5.223  -8.863   0.000  1.00  0.00     0.055 A 
HETATM   14  C   UNL     1       0.182  -8.684   0.000  1.00  0.00    -0.002 A 
HETATM   15  C   UNL     1      -2.289  -9.487   0.000  1.00  0.00    -0.047 A 
HETATM   16  C   UNL     1      -4.760 -10.290   0.000  1.00  0.00     0.160 A 
HETATM   17  C   UNL     1      -0.822  -9.799   0.000  1.00  0.00     0.021 A 
HETATM   18  C   UNL     1      -3.293 -10.602   0.000  1.00  0.00     0.055 A 
HETATM   19  O   UNL     1      -5.764 -11.405   0.000  1.00  0.00    -0.223 OA
HETATM   20  C   UNL     1      -4.683  -6.322   0.000  1.00  0.00     0.026 C 
HETATM   21  C   UNL     1      -0.053  -3.249   0.000  1.00  0.00     0.030 A 
ENDROOT
TORSDOF 0
