REMARK  1 active torsions:
REMARK  status: ('A' for Active; 'I' for Inactive)
REMARK    1  A    between atoms: C_11  and  C_15 
ROOT
HETATM    1  O   UNL     1      -0.750   6.750   0.000  1.00  0.00    -0.331 OA
HETATM    2  O   UNL     1      -3.419   8.390   0.000  1.00  0.00     0.000 OA
HETATM    3  N   UNL     1      -3.673  10.804   0.000  1.00  0.00    -0.360 N 
HETATM    4  H   UNL     1      -4.283  12.174   0.000  1.00  0.00     0.162 HD
HETATM    5  S   UNL     1      -5.915   9.348   0.000  1.00  0.00    -0.057 SA
HETATM    6  C   UNL     1      -3.348   6.750   0.000  1.00  0.00    -0.006 A 
HETATM    7  C   UNL     1      -2.049   6.000   0.000  1.00  0.00     0.068 A 
HETATM    8  C   UNL     1      -4.647   6.000   0.000  1.00  0.00     0.028 A 
HETATM    9  C   UNL     1      -2.049   4.500   0.000  1.00  0.00     0.059 A 
HETATM   10  C   UNL     1      -4.647   4.500   0.000  1.00  0.00     0.014 A 
HETATM   11  C   UNL     1      -3.348   3.750   0.000  1.00  0.00     0.102 A 
HETATM   12  C   UNL     1      -2.049   9.000   0.000  1.00  0.00     0.004 A 
HETATM   13  C   UNL     1      -2.206  10.492   0.000  1.00  0.00     0.123 A 
HETATM   14  C   UNL     1      -4.423   9.505   0.000  1.00  0.00     0.135 A 
HETATM   15  C   UNL     1      -0.750   8.250   0.000  1.00  0.00     0.172 A 
ENDROOT
BRANCH  11  16
HETATM   16  C   UNL     1      -3.348   2.250   0.000  1.00  0.00     0.398 C 
HETATM   17  F   UNL     1      -4.848   2.250   0.000  1.00  0.00    -0.170 F 
HETATM   18  F   UNL     1      -3.348   0.750   0.000  1.00  0.00    -0.170 F 
HETATM   19  F   UNL     1      -1.848   2.250   0.000  1.00  0.00    -0.170 F 
ENDBRANCH  11  16
TORSDOF 1
