REMARK  6 active torsions:
REMARK  status: ('A' for Active; 'I' for Inactive)
REMARK    1  A    between atoms: C_9  and  N_28 
REMARK    2  A    between atoms: C_10  and  N_27 
REMARK    3  A    between atoms: C_12  and  C_15 
REMARK    4  A    between atoms: C_13  and  C_14 
REMARK    5  A    between atoms: C_17  and  N_30 
REMARK    6  A    between atoms: C_20  and  N_29 
ROOT
HETATM    1  C   UNL     1      -0.750  -4.647   0.000  1.00  0.00     0.022 A 
HETATM    2  C   UNL     1      -1.500  -5.946   0.000  1.00  0.00     0.011 A 
HETATM    3  C   UNL     1      -1.500  -3.348   0.000  1.00  0.00    -0.042 A 
HETATM    4  C   UNL     1      -0.750  -2.049   0.000  1.00  0.00     0.022 A 
HETATM    5  C   UNL     1      -1.500  -0.750   0.000  1.00  0.00     0.011 A 
HETATM    6  C   UNL     1      -3.000  -5.946   0.000  1.00  0.00     0.044 A 
HETATM    7  C   UNL     1      -3.000  -3.348   0.000  1.00  0.00     0.016 A 
HETATM    8  C   UNL     1      -3.000  -0.750   0.000  1.00  0.00     0.044 A 
HETATM    9  C   UNL     1      -3.750  -4.647   0.000  1.00  0.00     0.040 A 
HETATM   10  C   UNL     1      -3.750  -2.049   0.000  1.00  0.00     0.040 A 
ENDROOT
BRANCH   9  11
HETATM   11  N   UNL     1      -5.250  -4.647   0.000  1.00  0.00    -0.308 N 
HETATM   12  C   UNL     1      -6.000  -3.348   0.000  1.00  0.00     0.210 A 
HETATM   13  C   UNL     1      -6.750  -2.049   0.000  1.00  0.00     0.099 A 
HETATM   14  C   UNL     1      -6.750  -4.647   0.000  1.00  0.00     0.099 A 
HETATM   15  N   UNL     1      -5.250  -2.049   0.000  1.00  0.00    -0.308 N 
BRANCH  13  16
HETATM   16  C   UNL     1      -8.250  -2.049   0.000  1.00  0.00     0.099 A 
HETATM   17  C   UNL     1      -9.000  -3.348   0.000  1.00  0.00     0.210 A 
HETATM   18  C   UNL     1      -8.250  -4.647   0.000  1.00  0.00     0.099 A 
HETATM   19  N   UNL     1      -9.750  -2.049   0.000  1.00  0.00    -0.308 N 
HETATM   20  N   UNL     1      -9.750  -4.647   0.000  1.00  0.00    -0.308 N 
BRANCH  19  21
HETATM   21  C   UNL     1     -11.250  -2.049   0.000  1.00  0.00     0.040 A 
HETATM   22  C   UNL     1     -12.000  -3.348   0.000  1.00  0.00     0.016 A 
HETATM   23  C   UNL     1     -11.250  -4.647   0.000  1.00  0.00     0.040 A 
HETATM   24  C   UNL     1     -13.500  -3.348   0.000  1.00  0.00    -0.042 A 
HETATM   25  C   UNL     1     -12.000  -5.946   0.000  1.00  0.00     0.044 A 
HETATM   26  C   UNL     1     -13.500  -5.946   0.000  1.00  0.00     0.011 A 
HETATM   27  C   UNL     1     -14.250  -4.647   0.000  1.00  0.00     0.022 A 
HETATM   28  C   UNL     1     -14.250  -2.049   0.000  1.00  0.00     0.022 A 
HETATM   29  C   UNL     1     -13.500  -0.750   0.000  1.00  0.00     0.011 A 
HETATM   30  C   UNL     1     -12.000  -0.750   0.000  1.00  0.00     0.044 A 
ENDBRANCH  19  21
ENDBRANCH  13  16
ENDBRANCH   9  11
TORSDOF 6
