REMARK  1 active torsions:
REMARK  status: ('A' for Active; 'I' for Inactive)
REMARK    1  A    between atoms: O_15  and  C_16 
ROOT
HETATM    1  O   UNL     1       0.750   2.250   0.000  1.00  0.00    -0.150 OA
HETATM    2  N   UNL     1       2.049   4.500   0.000  1.00  0.00    -0.281 N 
HETATM    3  N   UNL     1       3.348   2.250   0.000  1.00  0.00    -0.268 N 
HETATM    4 CL   UNL     1       3.348   6.750   0.000  1.00  0.00    -0.061 Cl
HETATM    5  O   UNL     1       5.946   2.250   0.000  1.00  0.00    -0.169 OA
HETATM    6  C   UNL     1       3.348   5.250   0.000  1.00  0.00     0.143 A 
HETATM    7  C   UNL     1       4.647   4.500   0.000  1.00  0.00     0.152 A 
HETATM    8  C   UNL     1       4.647   3.000   0.000  1.00  0.00     0.217 A 
HETATM    9  C   UNL     1       2.049   3.000   0.000  1.00  0.00     0.265 A 
HETATM   10  C   UNL     1       0.750   5.250   0.000  1.00  0.00     0.135 C 
HETATM   11  C   UNL     1       3.348   0.750   0.000  1.00  0.00     0.136 C 
HETATM   12  N   UNL     1       5.946   5.250   0.000  1.00  0.00    -0.211 NA
HETATM   13  C   UNL     1       7.245   4.500   0.000  1.00  0.00     0.257 A 
HETATM   14  O   UNL     1       8.544   5.250   0.000  1.00  0.00    -0.165 OA
HETATM   15  O   UNL     1       7.245   3.000   0.000  1.00  0.00     0.000 OA
ENDROOT
BRANCH  15  16
HETATM   16  C   UNL     1       8.544   2.250   0.000  1.00  0.00     0.000 C 
HETATM   17  C   UNL     1       8.544   0.750   0.000  1.00  0.00     0.000 C 
ENDBRANCH  15  16
TORSDOF 1
