REMARK  8 active torsions:
REMARK  status: ('A' for Active; 'I' for Inactive)
REMARK    1  A    between atoms: C_4  and  C_14 
REMARK    2  A    between atoms: C_5  and  C_11 
REMARK    3  A    between atoms: O_6  and  C_7 
REMARK    4  A    between atoms: O_6  and  C_9 
REMARK    5  A    between atoms: C_9  and  C_11 
REMARK    6  A    between atoms: C_14  and  C_17 
REMARK    7  A    between atoms: C_17  and  O_19 
REMARK    8  A    between atoms: O_19  and  C_20 
ROOT
HETATM    1  C   UNL     1      -2.272  -1.408   0.000  1.00  0.00     0.116 C 
HETATM    2  C   UNL     1      -1.990  -2.882   0.000  1.00  0.00     0.027 C 
HETATM    3  N   UNL     1      -1.709  -4.355   0.000  1.00  0.00    -0.096 N 
ENDROOT
BRANCH   1   4
HETATM    4  C   UNL     1      -1.137  -0.428   0.000  1.00  0.00     0.078 A 
HETATM    5  S   UNL     1      -1.262   1.067   0.000  1.00  0.00    -0.048 SA
HETATM    6  S   UNL     1       0.120   1.648   0.000  1.00  0.00    -0.048 SA
HETATM    7  S   UNL     1       0.324  -0.770   0.000  1.00  0.00    -0.062 SA
HETATM    8  C   UNL     1       1.101   0.513   0.000  1.00  0.00     0.078 A 
BRANCH   8   9
HETATM    9  C   UNL     1       2.595   0.639   0.000  1.00  0.00     0.116 C 
HETATM   10  C   UNL     1       3.452  -0.593   0.000  1.00  0.00     0.027 C 
HETATM   11  N   UNL     1       4.308  -1.824   0.000  1.00  0.00    -0.096 N 
BRANCH   9  12
HETATM   12  C   UNL     1       3.234   1.996   0.000  1.00  0.00     0.238 C 
HETATM   13  O   UNL     1       2.377   3.228   0.000  1.00  0.00    -0.163 OA
BRANCH  12  14
HETATM   14  O   UNL     1       4.728   2.122   0.000  1.00  0.00    -0.308 OA
BRANCH  14  15
HETATM   15  C   UNL     1       5.367   3.480   0.000  1.00  0.00     0.151 C 
HETATM   16  C   UNL     1       6.862   3.606   0.000  1.00  0.00     0.035 C 
ENDBRANCH  14  15
ENDBRANCH  12  14
ENDBRANCH   9  12
ENDBRANCH   8   9
ENDBRANCH   1   4
BRANCH   1  17
HETATM   17  C   UNL     1      -3.688  -0.915   0.000  1.00  0.00     0.238 C 
HETATM   18  O   UNL     1      -3.970   0.558   0.000  1.00  0.00    -0.163 OA
BRANCH  17  19
HETATM   19  O   UNL     1      -4.824  -1.896   0.000  1.00  0.00    -0.308 OA
BRANCH  19  20
HETATM   20  C   UNL     1      -6.240  -1.403   0.000  1.00  0.00     0.151 C 
HETATM   21  C   UNL     1      -7.376  -2.383   0.000  1.00  0.00     0.035 C 
ENDBRANCH  19  20
ENDBRANCH  17  19
ENDBRANCH   1  17
TORSDOF 8
