REMARK  1 active torsions:
REMARK  status: ('A' for Active; 'I' for Inactive)
REMARK    1  A    between atoms: C_9  and  N_14 
ROOT
HETATM    1  O   UNL     1       3.523  -1.602   0.000  1.00  0.00    -0.169 OA
HETATM    2  H   UNL     1       3.523  -4.602   0.000  1.00  0.00     0.171 HD
HETATM    3  N   UNL     1       4.822  -3.852   0.000  1.00  0.00    -0.296 N 
HETATM    4  O   UNL     1       6.121  -6.102   0.000  1.00  0.00    -0.150 OA
HETATM    5  N   UNL     1       7.420  -3.852   0.000  1.00  0.00    -0.242 N 
HETATM    6  H   UNL     1       9.310  -0.462   0.000  1.00  0.00     0.191 HD
HETATM    7  N   UNL     1       8.847  -1.888   0.000  1.00  0.00    -0.258 N 
HETATM    8  N   UNL     1       9.728  -3.102   0.000  1.00  0.00    -0.158 NA
HETATM    9  C   UNL     1       6.121  -1.602   0.000  1.00  0.00     0.202 A 
HETATM   10  C   UNL     1       7.420  -2.352   0.000  1.00  0.00     0.171 A 
HETATM   11  C   UNL     1       4.822  -2.352   0.000  1.00  0.00     0.219 A 
HETATM   12  C   UNL     1       8.847  -4.316   0.000  1.00  0.00     0.148 A 
HETATM   13  C   UNL     1       6.121  -4.602   0.000  1.00  0.00     0.267 A 
HETATM   14  C   UNL     1       9.310  -5.742   0.000  1.00  0.00     0.074 C 
ENDROOT
BRANCH   9  15
HETATM   15  N   UNL     1       6.121  -0.102   0.000  1.00  0.00    -0.107 N 
HETATM   16  O   UNL     1       4.822   0.648   0.000  1.00  0.00    -0.531 OA
HETATM   17  O   UNL     1       7.420   0.648   0.000  1.00  0.00    -0.531 OA
ENDBRANCH   9  15
TORSDOF 1
