REMARK  0 active torsions:
REMARK  status: ('A' for Active; 'I' for Inactive)
ROOT
HETATM    1  C   UNL     1       0.750  -1.500   0.000  1.00  0.00     0.005 A 
HETATM    2  C   UNL     1       0.750  -3.000   0.000  1.00  0.00     0.027 A 
HETATM    3  C   UNL     1       0.750  -6.000   0.000  1.00  0.00     0.026 A 
HETATM    4  C   UNL     1       0.750  -7.500   0.000  1.00  0.00     0.005 A 
HETATM    5  C   UNL     1       2.049  -3.750   0.000  1.00  0.00    -0.015 A 
HETATM    6  C   UNL     1       2.049  -5.250   0.000  1.00  0.00    -0.027 A 
HETATM    7  C   UNL     1       2.049  -0.750   0.000  1.00  0.00     0.007 A 
HETATM    8  C   UNL     1       2.049  -8.250   0.000  1.00  0.00     0.005 A 
HETATM    9  C   UNL     1       3.348  -6.000   0.000  1.00  0.00    -0.000 A 
HETATM   10  C   UNL     1       3.348  -7.500   0.000  1.00  0.00     0.028 A 
HETATM   11  C   UNL     1       3.348  -3.000   0.000  1.00  0.00     0.030 A 
HETATM   12  C   UNL     1       3.348  -1.500   0.000  1.00  0.00     0.043 A 
HETATM   13  N   UNL     1       4.647  -3.750   0.000  1.00  0.00    -0.349 N 
HETATM   14  C   UNL     1       4.647  -5.250   0.000  1.00  0.00     0.108 A 
HETATM   15  S   UNL     1       5.946  -6.000   0.000  1.00  0.00    -0.060 SA
HETATM   16  H   UNL     1       5.946  -3.000   0.000  1.00  0.00     0.166 HD
ENDROOT
TORSDOF 0
