REMARK  4 active torsions:
REMARK  status: ('A' for Active; 'I' for Inactive)
REMARK    1  A    between atoms: C_2  and  C_20 
REMARK    2  A    between atoms: C_16  and  C_17 
REMARK    3  A    between atoms: C_17  and  C_19 
REMARK    4  A    between atoms: C_19  and  C_20 
ROOT
HETATM    1  C   UNL     1      -2.973   6.649   0.000  1.00  0.00     0.104 C 
HETATM    2  O   UNL     1      -1.674   5.899   0.000  1.00  0.00    -0.195 OA
ENDROOT
BRANCH   1   3
HETATM    3  C   UNL     1      -2.973   8.149   0.000  1.00  0.00     0.011 A 
HETATM    4  C   UNL     1      -1.674   8.899   0.000  1.00  0.00     0.050 A 
HETATM    5  C   UNL     1      -1.674  10.399   0.000  1.00  0.00    -0.022 A 
HETATM    6  C   UNL     1      -0.375  11.149   0.000  1.00  0.00     0.024 A 
HETATM    7  C   UNL     1      -2.973  11.149   0.000  1.00  0.00     0.064 A 
HETATM    8  C   UNL     1      -0.375  12.649   0.000  1.00  0.00     0.005 A 
HETATM    9  C   UNL     1      -1.674  13.399   0.000  1.00  0.00     0.007 A 
HETATM   10  C   UNL     1      -2.973  12.649   0.000  1.00  0.00     0.050 A 
HETATM   11  O   UNL     1      -4.272  10.399   0.000  1.00  0.00    -0.331 OA
HETATM   12  C   UNL     1      -4.272   8.899   0.000  1.00  0.00     0.173 A 
ENDBRANCH   1   3
BRANCH   1  13
HETATM   13  C   UNL     1      -4.272   5.899   0.000  1.00  0.00     0.058 C 
BRANCH  13  14
HETATM   14  C   UNL     1      -5.571   6.649   0.000  1.00  0.00     0.031 C 
BRANCH  14  15
HETATM   15  C   UNL     1      -6.870   5.899   0.000  1.00  0.00    -0.023 A 
HETATM   16  C   UNL     1      -6.870   4.399   0.000  1.00  0.00     0.024 A 
HETATM   17  C   UNL     1      -8.169   3.650   0.000  1.00  0.00     0.005 A 
HETATM   18  C   UNL     1      -9.468   4.399   0.000  1.00  0.00     0.007 A 
HETATM   19  C   UNL     1      -9.468   5.899   0.000  1.00  0.00     0.054 A 
HETATM   20  C   UNL     1      -8.169   6.649   0.000  1.00  0.00     0.101 A 
HETATM   21  O   UNL     1      -8.169   8.149   0.000  1.00  0.00    -0.196 OA
ENDBRANCH  14  15
ENDBRANCH  13  14
ENDBRANCH   1  13
TORSDOF 4
