REMARK  2 active torsions:
REMARK  status: ('A' for Active; 'I' for Inactive)
REMARK    1  A    between atoms: C_6  and  N_15 
REMARK    2  A    between atoms: C_8  and  S_19 
ROOT
HETATM    1  C   UNL     1      -0.924   7.399   0.000  1.00  0.00    -0.010 A 
HETATM    2  C   UNL     1      -2.223   6.649   0.000  1.00  0.00     0.033 A 
HETATM    3  C   UNL     1       0.375   6.649   0.000  1.00  0.00     0.072 A 
HETATM    4  C   UNL     1       0.375   5.149   0.000  1.00  0.00     0.092 A 
HETATM    5  C   UNL     1      -2.223   5.149   0.000  1.00  0.00     0.051 A 
HETATM    6  C   UNL     1      -0.924   4.399   0.000  1.00  0.00     0.088 A 
HETATM    7  O   UNL     1      -0.924   8.899   0.000  1.00  0.00     0.000 OA
HETATM    8  C   UNL     1      -2.223   9.649   0.000  1.00  0.00     0.000 C 
HETATM    9  N   UNL     1       1.674   7.399   0.000  1.00  0.00    -0.177 NA
HETATM   10  S   UNL     1       1.674   8.899   0.000  1.00  0.00     0.208 S 
HETATM   11  O   UNL     1       0.174   8.899   0.000  1.00  0.00    -0.108 OA
HETATM   12  O   UNL     1       3.174   8.899   0.000  1.00  0.00    -0.216 OA
ENDROOT
BRANCH  10  13
HETATM   13  C   UNL     1       1.674  10.399   0.000  1.00  0.00     0.117 A 
HETATM   14  C   UNL     1       0.375  11.149   0.000  1.00  0.00     0.017 A 
HETATM   15  C   UNL     1       0.375  12.649   0.000  1.00  0.00     0.001 A 
HETATM   16  C   UNL     1       1.674  13.399   0.000  1.00  0.00     0.000 A 
HETATM   17  C   UNL     1       2.973  12.649   0.000  1.00  0.00     0.001 A 
HETATM   18  C   UNL     1       1.674  14.899   0.000  1.00  0.00     0.000 C 
HETATM   19  C   UNL     1       2.973  11.149   0.000  1.00  0.00     0.017 A 
ENDBRANCH  10  13
BRANCH   6  20
HETATM   20  N   UNL     1      -0.924   2.900   0.000  1.00  0.00    -0.122 N 
HETATM   21  O   UNL     1      -2.223   2.150   0.000  1.00  0.00    -0.532 OA
HETATM   22  O   UNL     1       0.375   2.150   0.000  1.00  0.00    -0.532 OA
ENDBRANCH   6  20
TORSDOF 2
