REMARK  4 active torsions:
REMARK  status: ('A' for Active; 'I' for Inactive)
REMARK    1  A    between atoms: S_8  and  C_17 
REMARK    2  A    between atoms: S_8  and  C_21 
REMARK    3  A    between atoms: N_9  and  C_22 
REMARK    4  A    between atoms: C_21  and  C_22 
ROOT
HETATM    1  O   UNL     1      -5.726  -1.659   0.000  1.00  0.00    -0.150 OA
HETATM    2  N   UNL     1      -4.457   0.608   0.000  1.00  0.00    -0.281 N 
HETATM    3  S   UNL     1      -3.187   2.875   0.000  1.00  0.00    -0.058 SA
HETATM    4  N   UNL     1      -3.128  -1.625   0.000  1.00  0.00    -0.275 N 
HETATM    5  N   UNL     1      -0.439   1.124   0.000  1.00  0.00    -0.330 N 
HETATM    6  H   UNL     1       0.006   2.557   0.000  1.00  0.00     0.168 HD
HETATM    7  N   UNL     1      -0.407  -1.303   0.000  1.00  0.00    -0.204 NA
HETATM    8  C   UNL     1      -3.168   1.375   0.000  1.00  0.00     0.138 A 
HETATM    9  C   UNL     1      -1.859   0.642   0.000  1.00  0.00     0.119 A 
HETATM   10  C   UNL     1      -1.839  -0.858   0.000  1.00  0.00     0.167 A 
HETATM   11  C   UNL     1       0.459  -0.078   0.000  1.00  0.00     0.170 A 
HETATM   12  C   UNL     1      -4.437  -0.892   0.000  1.00  0.00     0.265 A 
HETATM   13  C   UNL     1      -5.766   1.341   0.000  1.00  0.00     0.135 C 
HETATM   14  C   UNL     1      -3.109  -3.125   0.000  1.00  0.00     0.136 C 
ENDROOT
BRANCH  11  15
HETATM   15  S   UNL     1       1.959  -0.058   0.000  1.00  0.00    -0.075 SA
BRANCH  15  16
HETATM   16  C   UNL     1       2.490  -1.461   0.000  1.00  0.00     0.089 C 
BRANCH  16  17
HETATM   17  C   UNL     1       3.971  -1.702   0.000  1.00  0.00     0.109 C 
BRANCH  17  18
HETATM   18  N   UNL     1       4.920  -0.540   0.000  1.00  0.00    -0.368 N 
HETATM   19  C   UNL     1       4.538   0.910   0.000  1.00  0.00     0.097 A 
HETATM   20  C   UNL     1       5.800   1.722   0.000  1.00  0.00     0.026 A 
HETATM   21  C   UNL     1       6.961   0.773   0.000  1.00  0.00     0.026 A 
HETATM   22  C   UNL     1       6.417  -0.625   0.000  1.00  0.00     0.097 A 
ENDBRANCH  17  18
ENDBRANCH  16  17
ENDBRANCH  15  16
ENDBRANCH  11  15
TORSDOF 4
