REMARK  3 active torsions:
REMARK  status: ('A' for Active; 'I' for Inactive)
REMARK    1  A    between atoms: C_8  and  S_11 
REMARK    2  A    between atoms: S_11  and  C_12 
REMARK    3  A    between atoms: N_14  and  C_21 
ROOT
HETATM    1  N   UNL     1      -9.730  -7.984   0.000  1.00  0.00    -0.281 N 
HETATM    2  C   UNL     1      -9.730  -9.484   0.000  1.00  0.00     0.265 A 
HETATM    3  N   UNL     1      -8.431 -10.234   0.000  1.00  0.00    -0.275 N 
HETATM    4  C   UNL     1      -7.132  -9.484   0.000  1.00  0.00     0.164 A 
HETATM    5  C   UNL     1      -7.132  -7.984   0.000  1.00  0.00     0.139 A 
HETATM    6  C   UNL     1      -8.431  -7.234   0.000  1.00  0.00     0.139 A 
HETATM    7  N   UNL     1      -5.705  -9.947   0.000  1.00  0.00    -0.220 NA
HETATM    8  C   UNL     1      -4.824  -8.734   0.000  1.00  0.00     0.257 A 
HETATM    9  S   UNL     1      -8.431  -5.734   0.000  1.00  0.00    -0.057 SA
HETATM   10  O   UNL     1     -11.029 -10.234   0.000  1.00  0.00    -0.150 OA
HETATM   11  N   UNL     1      -5.705  -7.520   0.000  1.00  0.00    -0.233 NA
HETATM   12  C   UNL     1      -8.431 -11.734   0.000  1.00  0.00     0.136 C 
HETATM   13  C   UNL     1     -11.029  -7.234   0.000  1.00  0.00     0.135 C 
ENDROOT
BRANCH   8  14
HETATM   14  S   UNL     1      -3.324  -8.734   0.000  1.00  0.00    -0.091 SA
BRANCH  14  15
HETATM   15  C   UNL     1      -2.574  -7.435   0.000  1.00  0.00     0.073 A 
HETATM   16  C   UNL     1      -1.074  -7.435   0.000  1.00  0.00     0.108 A 
HETATM   17  N   UNL     1      -0.324  -6.136   0.000  1.00  0.00    -0.368 N 
HETATM   18  C   UNL     1      -1.074  -4.837   0.000  1.00  0.00     0.097 A 
HETATM   19  C   UNL     1      -2.574  -4.837   0.000  1.00  0.00     0.025 A 
HETATM   20  C   UNL     1      -3.324  -6.136   0.000  1.00  0.00     0.015 A 
BRANCH  17  21
HETATM   21  C   UNL     1       1.176  -6.136   0.000  1.00  0.00     0.097 C 
HETATM   22  C   UNL     1       1.926  -4.837   0.000  1.00  0.00     0.026 C 
ENDBRANCH  17  21
ENDBRANCH  14  15
ENDBRANCH   8  14
TORSDOF 3
