REMARK  3 active torsions:
REMARK  status: ('A' for Active; 'I' for Inactive)
REMARK    1  A    between atoms: S_8  and  C_18 
REMARK    2  A    between atoms: S_8  and  C_22 
REMARK    3  A    between atoms: C_17  and  C_22 
ROOT
HETATM    1  S   UNL     1      -7.605  -8.370   0.000  1.00  0.00    -0.040 SA
HETATM    2  N   UNL     1      -6.306  -6.120   0.000  1.00  0.00    -0.281 N 
HETATM    3  O   UNL     1      -5.007  -3.870   0.000  1.00  0.00    -0.169 OA
HETATM    4  N   UNL     1      -5.007  -8.370   0.000  1.00  0.00    -0.288 N 
HETATM    5  N   UNL     1      -2.281  -5.657   0.000  1.00  0.00    -0.329 N 
HETATM    6  H   UNL     1      -1.818  -4.230   0.000  1.00  0.00     0.168 HD
HETATM    7  N   UNL     1      -2.281  -8.084   0.000  1.00  0.00    -0.204 NA
HETATM    8  C   UNL     1      -5.007  -5.370   0.000  1.00  0.00     0.215 A 
HETATM    9  C   UNL     1      -3.708  -6.120   0.000  1.00  0.00     0.136 A 
HETATM   10  C   UNL     1      -3.708  -7.620   0.000  1.00  0.00     0.167 A 
HETATM   11  C   UNL     1      -1.399  -6.870   0.000  1.00  0.00     0.170 A 
HETATM   12  C   UNL     1      -6.306  -7.620   0.000  1.00  0.00     0.186 A 
HETATM   13  C   UNL     1      -7.605  -5.370   0.000  1.00  0.00     0.135 C 
HETATM   14  C   UNL     1      -5.007  -9.870   0.000  1.00  0.00     0.134 C 
ENDROOT
BRANCH  11  15
HETATM   15  S   UNL     1       0.101  -6.870   0.000  1.00  0.00    -0.071 SA
BRANCH  15  16
HETATM   16  C   UNL     1       0.851  -8.169   0.000  1.00  0.00     0.106 C 
BRANCH  16  17
HETATM   17  C   UNL     1       0.101  -9.468   0.000  1.00  0.00     0.043 A 
HETATM   18  N   UNL     1      -1.399  -9.468   0.000  1.00  0.00    -0.278 NA
HETATM   19  C   UNL     1      -2.150 -10.767   0.000  1.00  0.00     0.125 A 
HETATM   20  C   UNL     1      -1.399 -12.066   0.000  1.00  0.00     0.027 A 
HETATM   21  C   UNL     1       0.101 -12.066   0.000  1.00  0.00     0.008 A 
HETATM   22  C   UNL     1       0.851 -10.767   0.000  1.00  0.00     0.042 A 
ENDBRANCH  16  17
ENDBRANCH  15  16
ENDBRANCH  11  15
TORSDOF 3
