REMARK  3 active torsions:
REMARK  status: ('A' for Active; 'I' for Inactive)
REMARK    1  A    between atoms: C_3  and  C_11 
REMARK    2  A    between atoms: C_5  and  N_10 
REMARK       I    between atoms: C_7  and  N_10 
REMARK    3  A    between atoms: C_11  and  N_12 
ROOT
HETATM    1  C   UNL     1      -0.117   1.849   0.000  1.00  0.00     0.058 A 
HETATM    2  C   UNL     1      -1.268   0.888   0.000  1.00  0.00     0.122 A 
HETATM    3  C   UNL     1       1.153   1.052   0.000  1.00  0.00     0.042 A 
HETATM    4  C   UNL     1       0.787  -0.403   0.000  1.00  0.00     0.050 A 
HETATM    5  C   UNL     1      -0.709  -0.504   0.000  1.00  0.00     0.082 A 
HETATM    6  O   UNL     1      -2.723   1.253   0.000  1.00  0.00    -0.194 OA
ENDROOT
BRANCH   3   7
HETATM    7  C   UNL     1       2.545   1.611   0.000  1.00  0.00     0.177 C 
BRANCH   7   8
HETATM    8  N   UNL     1       3.725   0.686   0.000  1.00  0.00    -0.138 N 
HETATM    9  O   UNL     1       5.117   1.245   0.000  1.00  0.00    -0.536 OA
HETATM   10  O   UNL     1       3.514  -0.799   0.000  1.00  0.00    -0.536 OA
ENDBRANCH   7   8
ENDBRANCH   3   7
BRANCH   5  11
HETATM   11  N   UNL     1      -1.507  -1.775   0.000  1.00  0.00    -0.226 NA
HETATM   12  C   UNL     1      -3.006  -1.720   0.000  1.00  0.00     0.190 C 
HETATM   13  O   UNL     1      -3.707  -0.394   0.000  1.00  0.00    -0.174 OA
HETATM   14  C   UNL     1      -3.803  -2.990   0.000  1.00  0.00     0.083 C 
ENDBRANCH   5  11
TORSDOF 3
