REMARK  0 active torsions:
REMARK  status: ('A' for Active; 'I' for Inactive)
ROOT
HETATM    1  O   UNL     1      -6.955  -2.250   0.000  1.00  0.00    -0.331 OA
HETATM    2  O   UNL     1      -6.955  -6.750   0.000  1.00  0.00    -0.195 OA
HETATM    3  O   UNL     1      -4.357  -0.750   0.000  1.00  0.00    -0.186 OA
HETATM    4  O   UNL     1      -4.357  -6.750   0.000  1.00  0.00    -0.190 OA
HETATM    5  O   UNL     1      -1.632  -2.537   0.000  1.00  0.00    -0.329 OA
HETATM    6  C   UNL     1      -4.357  -2.250   0.000  1.00  0.00     0.175 A 
HETATM    7  C   UNL     1      -3.058  -3.000   0.000  1.00  0.00     0.119 A 
HETATM    8  C   UNL     1      -5.656  -3.000   0.000  1.00  0.00     0.125 A 
HETATM    9  C   UNL     1      -3.058  -4.500   0.000  1.00  0.00     0.030 A 
HETATM   10  C   UNL     1      -5.656  -4.500   0.000  1.00  0.00     0.071 A 
HETATM   11  C   UNL     1      -4.357  -5.250   0.000  1.00  0.00     0.133 A 
HETATM   12  C   UNL     1      -1.632  -4.963   0.000  1.00  0.00     0.063 A 
HETATM   13  C   UNL     1      -0.750  -3.750   0.000  1.00  0.00     0.154 A 
HETATM   14  C   UNL     1      -6.955  -5.250   0.000  1.00  0.00     0.115 A 
HETATM   15  C   UNL     1      -8.254  -4.500   0.000  1.00  0.00     0.084 A 
HETATM   16  C   UNL     1      -8.254  -3.000   0.000  1.00  0.00     0.128 A 
HETATM   17  C   UNL     1      -9.553  -2.250   0.000  1.00  0.00     0.033 C 
ENDROOT
TORSDOF 0
