REMARK  3 active torsions:
REMARK  status: ('A' for Active; 'I' for Inactive)
REMARK    1  A    between atoms: N_1  and  C_14 
REMARK    2  A    between atoms: N_4  and  C_22 
REMARK    3  A    between atoms: C_15  and  C_16 
ROOT
HETATM    1  N   UNL     1       5.571  -3.650   0.000  1.00  0.00     0.130 NA
HETATM    2  N   UNL     1       6.870  -1.399   0.000  1.00  0.00     0.133 NA
HETATM    3  N   UNL     1       8.169  -3.650   0.000  1.00  0.00     0.050 N 
HETATM    4  N   UNL     1       9.596  -1.686   0.000  1.00  0.00     0.047 NA
HETATM    5  N   UNL     1      10.477  -2.900   0.000  1.00  0.00    -0.114 NA
HETATM    6  C   UNL     1       8.169  -2.150   0.000  1.00  0.00     0.783 A 
HETATM    7  C   UNL     1       5.571  -2.150   0.000  1.00  0.00     0.758 A 
HETATM    8  C   UNL     1       9.596  -4.113   0.000  1.00  0.00     0.196 A 
HETATM    9  C   UNL     1       6.870  -4.399   0.000  1.00  0.00     0.746 A 
ENDROOT
BRANCH   7  10
HETATM   10  N   UNL     1       4.272  -1.399   0.000  1.00  0.00    -0.182 N 
HETATM   11  C   UNL     1       4.272   0.101   0.000  1.00  0.00     0.120 A 
HETATM   12  C   UNL     1       2.973   0.851   0.000  1.00  0.00     0.025 A 
HETATM   13  C   UNL     1       1.674   0.101   0.000  1.00  0.00     0.004 A 
HETATM   14  C   UNL     1       1.674  -1.399   0.000  1.00  0.00     0.025 A 
HETATM   15  C   UNL     1       2.973  -2.150   0.000  1.00  0.00     0.120 A 
ENDBRANCH   7  10
BRANCH   9  16
HETATM   16  N   UNL     1       6.870  -5.899   0.000  1.00  0.00    -0.169 N 
HETATM   17  C   UNL     1       8.169  -6.649   0.000  1.00  0.00     0.035 A 
HETATM   18  C   UNL     1       8.169  -8.149   0.000  1.00  0.00     0.039 A 
HETATM   19  C   UNL     1       9.056  -6.654   0.000  1.00  0.00     0.053 A 
HETATM   20  C   UNL     1       6.870  -8.899   0.000  1.00  0.00     0.008 A 
HETATM   21  C   UNL     1       9.519  -8.081   0.000  1.00  0.00     0.014 A 
HETATM   22  C   UNL     1       5.571  -8.149   0.000  1.00  0.00     0.025 A 
HETATM   23  C   UNL     1       5.571  -6.649   0.000  1.00  0.00     0.124 A 
HETATM   24  C   UNL     1      10.986  -8.393   0.000  1.00  0.00     0.001 A 
HETATM   25  C   UNL     1      11.990  -7.278   0.000  1.00  0.00     0.004 A 
HETATM   26  C   UNL     1      11.527  -5.851   0.000  1.00  0.00     0.025 A 
HETATM   27  C   UNL     1      10.059  -5.540   0.000  1.00  0.00    -0.002 A 
ENDBRANCH   9  16
TORSDOF 3
