REMARK  2 active torsions:
REMARK  status: ('A' for Active; 'I' for Inactive)
REMARK    1  A    between atoms: C_10  and  O_19 
REMARK    2  A    between atoms: C_21  and  C_23 
ROOT
HETATM    1  O   UNL     1      -3.536   8.694   0.000  1.00  0.00     0.000 OA
HETATM    2  O   UNL     1      -3.750  11.142   0.000  1.00  0.00    -0.351 OA
HETATM    3  O   UNL     1      -5.250   8.544   0.000  1.00  0.00     0.000 OA
HETATM    4  O   UNL     1      -0.750   8.544   0.000  1.00  0.00    -0.310 OA
HETATM    5  C   UNL     1      -4.500   9.843   0.000  1.00  0.00     0.115 A 
HETATM    6  C   UNL     1      -1.500   9.843   0.000  1.00  0.00     0.084 A 
HETATM    7  C   UNL     1      -3.000   9.843   0.000  1.00  0.00     0.099 A 
HETATM    8  C   UNL     1      -3.750   8.544   0.000  1.00  0.00     0.067 A 
HETATM    9  C   UNL     1      -3.000   7.245   0.000  1.00  0.00     0.163 A 
HETATM   10  C   UNL     1      -1.500   7.245   0.000  1.00  0.00     0.263 A 
HETATM   11  C   UNL     1      -5.994   9.713   0.000  1.00  0.00    -0.042 A 
HETATM   12  C   UNL     1      -6.628   8.353   0.000  1.00  0.00     0.020 A 
HETATM   13  C   UNL     1      -8.123   8.222   0.000  1.00  0.00     0.004 A 
HETATM   14  C   UNL     1      -8.983   9.451   0.000  1.00  0.00     0.001 A 
HETATM   15  C   UNL     1      -8.349  10.810   0.000  1.00  0.00     0.004 A 
HETATM   16  C   UNL     1      -6.855  10.941   0.000  1.00  0.00     0.020 A 
HETATM   17  C   UNL     1      -2.250  11.142   0.000  1.00  0.00     0.164 A 
HETATM   18  N   UNL     1      -3.750   5.946   0.000  1.00  0.00    -0.267 NA
HETATM   19  C   UNL     1      -5.250   5.946   0.000  1.00  0.00     0.085 A 
HETATM   20  O   UNL     1      -6.000   7.245   0.000  1.00  0.00     0.000 OA
ENDROOT
BRANCH  19  21
HETATM   21  C   UNL     1      -6.000   4.647   0.000  1.00  0.00    -0.025 A 
HETATM   22  C   UNL     1      -7.500   4.647   0.000  1.00  0.00     0.024 A 
HETATM   23  C   UNL     1      -8.250   3.348   0.000  1.00  0.00     0.004 A 
HETATM   24  C   UNL     1      -7.500   2.049   0.000  1.00  0.00     0.001 A 
HETATM   25  C   UNL     1      -6.000   2.049   0.000  1.00  0.00     0.004 A 
HETATM   26  C   UNL     1      -5.250   3.348   0.000  1.00  0.00     0.024 A 
ENDBRANCH  19  21
BRANCH  10  27
HETATM   27  O   UNL     1      -0.750   5.946   0.000  1.00  0.00    -0.327 OA
HETATM   28  C   UNL     1      -1.500   4.647   0.000  1.00  0.00     0.177 C 
ENDBRANCH  10  27
TORSDOF 2
